test_network/Sim_files_190128_OK_V0/RunMat/SrcDss/Load_indexed.txt
New Load.LOAD1 Phases=1 Bus1=1233.1.4 kV=0.23 kW=1 PF=0.95  daily=Shape_1
New Load.LOAD2 Phases=1 Bus1=1259.3.4 kV=0.23 kW=1 PF=0.95  daily=Shape_2
New Load.LOAD3 Phases=1 Bus1=1270.2.4 kV=0.23 kW=1 PF=0.95  daily=Shape_3
New Load.LOAD4 Phases=1 Bus1=1252.2.4 kV=0.23 kW=1 PF=0.95  daily=Shape_4
New Load.LOAD5 Phases=1 Bus1=1267.3.4 kV=0.23 kW=1 PF=0.95  daily=Shape_5
New Load.LOAD6 Phases=1 Bus1=1267.3.4 kV=0.23 kW=1 PF=0.95  daily=Shape_6
New Load.LOAD7 Phases=3 Bus1=1240.1.2.3.4 kV=0.4 kW=1 PF=0.95  daily=Shape_7
New Load.LOAD8 Phases=1 Bus1=1222.2.4 kV=0.23 kW=1 PF=0.95  daily=Shape_8
New Load.LOAD9 Phases=1 Bus1=1220.3.4 kV=0.23 kW=1 PF=0.95  daily=Shape_9
New Load.LOAD10 Phases=1 Bus1=1244.2.4 kV=0.23 kW=1 PF=0.95  daily=Shape_10
New Load.LOAD11 Phases=1 Bus1=1257.3.4 kV=0.23 kW=1 PF=0.95  daily=Shape_11
New Load.LOAD12 Phases=1 Bus1=1247.3.4 kV=0.23 kW=1 PF=0.95  daily=Shape_12
New Load.LOAD13 Phases=1 Bus1=1247.2.4 kV=0.23 kW=1 PF=0.95  daily=Shape_13
New Load.LOAD14 Phases=1 Bus1=1247.3.4 kV=0.23 kW=1 PF=0.95  daily=Shape_14
New Load.LOAD15 Phases=1 Bus1=1247.2.4 kV=0.23 kW=1 PF=0.95  daily=Shape_15
New Load.LOAD16 Phases=1 Bus1=1247.3.4 kV=0.23 kW=1 PF=0.95  daily=Shape_16
New Load.LOAD17 Phases=1 Bus1=1247.1.4 kV=0.23 kW=1 PF=0.95  daily=Shape_17
New Load.LOAD18 Phases=1 Bus1=1247.1.4 kV=0.23 kW=1 PF=0.95  daily=Shape_18
New Load.LOAD19 Phases=1 Bus1=1247.3.4 kV=0.23 kW=1 PF=0.95  daily=Shape_19
New Load.LOAD20 Phases=1 Bus1=1247.2.4 kV=0.23 kW=1 PF=0.95  daily=Shape_20
New Load.LOAD21 Phases=1 Bus1=1247.2.4 kV=0.23 kW=1 PF=0.95  daily=Shape_21
New Load.LOAD22 Phases=1 Bus1=1260.3.4 kV=0.23 kW=1 PF=0.95  daily=Shape_22
New Load.LOAD23 Phases=1 Bus1=1247.3.4 kV=0.23 kW=1 PF=0.95  daily=Shape_23
New Load.LOAD24 Phases=1 Bus1=1247.1.4 kV=0.23 kW=1 PF=0.95  daily=Shape_24
New Load.LOAD25 Phases=1 Bus1=1247.1.4 kV=0.23 kW=1 PF=0.95  daily=Shape_25
New Load.LOAD26 Phases=1 Bus1=1220.1.4 kV=0.23 kW=1 PF=0.95  daily=Shape_26
New Load.LOAD27 Phases=1 Bus1=1220.2.4 kV=0.23 kW=1 PF=0.95  daily=Shape_27
New Load.LOAD28 Phases=1 Bus1=1220.2.4 kV=0.23 kW=1 PF=0.95  daily=Shape_28
New Load.LOAD29 Phases=1 Bus1=1220.3.4 kV=0.23 kW=1 PF=0.95  daily=Shape_29
New Load.LOAD30 Phases=1 Bus1=1220.3.4 kV=0.23 kW=1 PF=0.95  daily=Shape_30
New Load.LOAD31 Phases=1 Bus1=1220.1.4 kV=0.23 kW=1 PF=0.95  daily=Shape_31
New Load.LOAD32 Phases=1 Bus1=1220.3.4 kV=0.23 kW=1 PF=0.95  daily=Shape_32
New Load.LOAD33 Phases=1 Bus1=1220.1.4 kV=0.23 kW=1 PF=0.95  daily=Shape_33
New Load.LOAD34 Phases=1 Bus1=1220.2.4 kV=0.23 kW=1 PF=0.95  daily=Shape_34
New Load.LOAD35 Phases=1 Bus1=1220.1.4 kV=0.23 kW=1 PF=0.95  daily=Shape_35
New Load.LOAD36 Phases=1 Bus1=1220.3.4 kV=0.23 kW=1 PF=0.95  daily=Shape_36
New Load.LOAD37 Phases=1 Bus1=1220.2.4 kV=0.23 kW=1 PF=0.95  daily=Shape_37
New Load.LOAD38 Phases=1 Bus1=1257.1.4 kV=0.23 kW=1 PF=0.95  daily=Shape_38
New Load.LOAD39 Phases=1 Bus1=1257.2.4 kV=0.23 kW=1 PF=0.95  daily=Shape_39
New Load.LOAD40 Phases=1 Bus1=1257.2.4 kV=0.23 kW=1 PF=0.95  daily=Shape_40
New Load.LOAD41 Phases=1 Bus1=1257.2.4 kV=0.23 kW=1 PF=0.95  daily=Shape_41
New Load.LOAD42 Phases=1 Bus1=1257.3.4 kV=0.23 kW=1 PF=0.95  daily=Shape_42
New Load.LOAD43 Phases=1 Bus1=1257.1.4 kV=0.23 kW=1 PF=0.95  daily=Shape_43
New Load.LOAD44 Phases=1 Bus1=1257.2.4 kV=0.23 kW=1 PF=0.95  daily=Shape_44
New Load.LOAD45 Phases=1 Bus1=1242.3.4 kV=0.23 kW=1 PF=0.95  daily=Shape_45
New Load.LOAD46 Phases=1 Bus1=1242.3.4 kV=0.23 kW=1 PF=0.95  daily=Shape_46
New Load.LOAD47 Phases=1 Bus1=1269.1.4 kV=0.23 kW=1 PF=0.95  daily=Shape_47
New Load.LOAD48 Phases=1 Bus1=1269.3.4 kV=0.23 kW=1 PF=0.95  daily=Shape_48
New Load.LOAD49 Phases=1 Bus1=1269.3.4 kV=0.23 kW=1 PF=0.95  daily=Shape_49
New Load.LOAD50 Phases=1 Bus1=1269.2.4 kV=0.23 kW=1 PF=0.95  daily=Shape_50
New Load.LOAD51 Phases=1 Bus1=1269.1.4 kV=0.23 kW=1 PF=0.95  daily=Shape_51
New Load.LOAD52 Phases=1 Bus1=1269.3.4 kV=0.23 kW=1 PF=0.95  daily=Shape_52
New Load.LOAD53 Phases=1 Bus1=1269.2.4 kV=0.23 kW=1 PF=0.95  daily=Shape_53
New Load.LOAD54 Phases=1 Bus1=1269.3.4 kV=0.23 kW=1 PF=0.95  daily=Shape_54
New Load.LOAD55 Phases=1 Bus1=1242.3.4 kV=0.23 kW=1 PF=0.95  daily=Shape_55
New Load.LOAD56 Phases=1 Bus1=1242.1.4 kV=0.23 kW=1 PF=0.95  daily=Shape_56
New Load.LOAD57 Phases=1 Bus1=1242.3.4 kV=0.23 kW=1 PF=0.95  daily=Shape_57
New Load.LOAD58 Phases=1 Bus1=1240.3.4 kV=0.23 kW=1 PF=0.95  daily=Shape_58
New Load.LOAD59 Phases=1 Bus1=1242.1.4 kV=0.23 kW=1 PF=0.95  daily=Shape_59
New Load.LOAD60 Phases=1 Bus1=1242.2.4 kV=0.23 kW=1 PF=0.95  daily=Shape_60
New Load.LOAD61 Phases=1 Bus1=1242.1.4 kV=0.23 kW=1 PF=0.95  daily=Shape_61
New Load.LOAD62 Phases=1 Bus1=1242.2.4 kV=0.23 kW=1 PF=0.95  daily=Shape_62
New Load.LOAD63 Phases=1 Bus1=1243.1.4 kV=0.23 kW=1 PF=0.95  daily=Shape_63
New Load.LOAD64 Phases=1 Bus1=1269.2.4 kV=0.23 kW=1 PF=0.95  daily=Shape_64
New Load.LOAD65 Phases=1 Bus1=1269.2.4 kV=0.23 kW=1 PF=0.95  daily=Shape_65
New Load.LOAD66 Phases=1 Bus1=1269.2.4 kV=0.23 kW=1 PF=0.95  daily=Shape_66
New Load.LOAD67 Phases=1 Bus1=1269.2.4 kV=0.23 kW=1 PF=0.95  daily=Shape_67
New Load.LOAD68 Phases=1 Bus1=1269.1.4 kV=0.23 kW=1 PF=0.95  daily=Shape_68
New Load.LOAD69 Phases=1 Bus1=1269.3.4 kV=0.23 kW=1 PF=0.95  daily=Shape_69
New Load.LOAD70 Phases=1 Bus1=1269.1.4 kV=0.23 kW=1 PF=0.95  daily=Shape_70
New Load.LOAD71 Phases=1 Bus1=1269.1.4 kV=0.23 kW=1 PF=0.95  daily=Shape_71
New Load.LOAD72 Phases=1 Bus1=1269.3.4 kV=0.23 kW=1 PF=0.95  daily=Shape_72
New Load.LOAD73 Phases=1 Bus1=1269.2.4 kV=0.23 kW=1 PF=0.95  daily=Shape_73
New Load.LOAD74 Phases=1 Bus1=1240.1.4 kV=0.23 kW=1 PF=0.95  daily=Shape_74
New Load.LOAD75 Phases=1 Bus1=1256.3.4 kV=0.23 kW=1 PF=0.95  daily=Shape_75
New Load.LOAD76 Phases=1 Bus1=1256.2.4 kV=0.23 kW=1 PF=0.95  daily=Shape_76
New Load.LOAD77 Phases=1 Bus1=1256.3.4 kV=0.23 kW=1 PF=0.95  daily=Shape_77
New Load.LOAD78 Phases=1 Bus1=1256.3.4 kV=0.23 kW=1 PF=0.95  daily=Shape_78
New Load.LOAD79 Phases=1 Bus1=1273.2.4 kV=0.23 kW=1 PF=0.95  daily=Shape_79
New Load.LOAD80 Phases=1 Bus1=1273.2.4 kV=0.23 kW=1 PF=0.95  daily=Shape_80
New Load.LOAD81 Phases=1 Bus1=1273.2.4 kV=0.23 kW=1 PF=0.95  daily=Shape_81
New Load.LOAD82 Phases=1 Bus1=1273.3.4 kV=0.23 kW=1 PF=0.95  daily=Shape_82
New Load.LOAD83 Phases=1 Bus1=1273.3.4 kV=0.23 kW=1 PF=0.95  daily=Shape_83
New Load.LOAD84 Phases=1 Bus1=1273.3.4 kV=0.23 kW=1 PF=0.95  daily=Shape_84
New Load.LOAD85 Phases=1 Bus1=1273.3.4 kV=0.23 kW=1 PF=0.95  daily=Shape_85
New Load.LOAD86 Phases=1 Bus1=1273.2.4 kV=0.23 kW=1 PF=0.95  daily=Shape_86
New Load.LOAD87 Phases=1 Bus1=1273.2.4 kV=0.23 kW=1 PF=0.95  daily=Shape_87
New Load.LOAD88 Phases=1 Bus1=1273.2.4 kV=0.23 kW=1 PF=0.95  daily=Shape_88
New Load.LOAD89 Phases=1 Bus1=1255.3.4 kV=0.23 kW=1 PF=0.95  daily=Shape_89
New Load.LOAD90 Phases=1 Bus1=1255.1.4 kV=0.23 kW=1 PF=0.95  daily=Shape_90
New Load.LOAD91 Phases=1 Bus1=1255.2.4 kV=0.23 kW=1 PF=0.95  daily=Shape_91
New Load.LOAD92 Phases=1 Bus1=1255.3.4 kV=0.23 kW=1 PF=0.95  daily=Shape_92
New Load.LOAD93 Phases=1 Bus1=1255.3.4 kV=0.23 kW=1 PF=0.95  daily=Shape_93
New Load.LOAD94 Phases=1 Bus1=1255.2.4 kV=0.23 kW=1 PF=0.95  daily=Shape_94
New Load.LOAD95 Phases=1 Bus1=1255.1.4 kV=0.23 kW=1 PF=0.95  daily=Shape_95
New Load.LOAD96 Phases=1 Bus1=1255.1.4 kV=0.23 kW=1 PF=0.95  daily=Shape_96
New Load.LOAD97 Phases=1 Bus1=1255.1.4 kV=0.23 kW=1 PF=0.95  daily=Shape_97
New Load.LOAD98 Phases=1 Bus1=1244.3.4 kV=0.23 kW=1 PF=0.95  daily=Shape_98
New Load.LOAD99 Phases=1 Bus1=1244.2.4 kV=0.23 kW=1 PF=0.95  daily=Shape_99
New Load.LOAD100 Phases=1 Bus1=1244.2.4 kV=0.23 kW=1 PF=0.95  daily=Shape_100
New Load.LOAD101 Phases=1 Bus1=1244.3.4 kV=0.23 kW=1 PF=0.95  daily=Shape_101
New Load.LOAD102 Phases=1 Bus1=1240.1.4 kV=0.23 kW=1 PF=0.95  daily=Shape_102
New Load.LOAD103 Phases=1 Bus1=1240.1.4 kV=0.23 kW=1 PF=0.95  daily=Shape_103
New Load.LOAD104 Phases=1 Bus1=1240.2.4 kV=0.23 kW=1 PF=0.95  daily=Shape_104
New Load.LOAD105 Phases=1 Bus1=1240.3.4 kV=0.23 kW=1 PF=0.95  daily=Shape_105
New Load.LOAD106 Phases=1 Bus1=1240.1.4 kV=0.23 kW=1 PF=0.95  daily=Shape_106
New Load.LOAD107 Phases=1 Bus1=1240.3.4 kV=0.23 kW=1 PF=0.95  daily=Shape_107
New Load.LOAD108 Phases=1 Bus1=1240.2.4 kV=0.23 kW=1 PF=0.95  daily=Shape_108
New Load.LOAD109 Phases=1 Bus1=1240.3.4 kV=0.23 kW=1 PF=0.95  daily=Shape_109
New Load.LOAD110 Phases=1 Bus1=1240.3.4 kV=0.23 kW=1 PF=0.95  daily=Shape_110
New Load.LOAD111 Phases=1 Bus1=1240.2.4 kV=0.23 kW=1 PF=0.95  daily=Shape_111
New Load.LOAD112 Phases=1 Bus1=1244.3.4 kV=0.23 kW=1 PF=0.95  daily=Shape_112
New Load.LOAD113 Phases=1 Bus1=1244.1.4 kV=0.23 kW=1 PF=0.95  daily=Shape_113
New Load.LOAD114 Phases=1 Bus1=1244.2.4 kV=0.23 kW=1 PF=0.95  daily=Shape_114
New Load.LOAD115 Phases=1 Bus1=1242.2.4 kV=0.23 kW=1 PF=0.95  daily=Shape_115
New Load.LOAD116 Phases=1 Bus1=1244.2.4 kV=0.23 kW=1 PF=0.95  daily=Shape_116
New Load.LOAD117 Phases=1 Bus1=1242.2.4 kV=0.23 kW=1 PF=0.95  daily=Shape_117
New Load.LOAD118 Phases=1 Bus1=1242.3.4 kV=0.23 kW=1 PF=0.95  daily=Shape_118
New Load.LOAD119 Phases=1 Bus1=1242.1.4 kV=0.23 kW=1 PF=0.95  daily=Shape_119
New Load.LOAD120 Phases=1 Bus1=1242.2.4 kV=0.23 kW=1 PF=0.95  daily=Shape_120
New Load.LOAD121 Phases=1 Bus1=1242.3.4 kV=0.23 kW=1 PF=0.95  daily=Shape_121
New Load.LOAD122 Phases=1 Bus1=1242.2.4 kV=0.23 kW=1 PF=0.95  daily=Shape_122
New Load.LOAD123 Phases=1 Bus1=1242.2.4 kV=0.23 kW=1 PF=0.95  daily=Shape_123
New Load.LOAD124 Phases=1 Bus1=1242.1.4 kV=0.23 kW=1 PF=0.95  daily=Shape_124
New Load.LOAD125 Phases=1 Bus1=1242.3.4 kV=0.23 kW=1 PF=0.95  daily=Shape_125
New Load.LOAD126 Phases=1 Bus1=1242.1.4 kV=0.23 kW=1 PF=0.95  daily=Shape_126
New Load.LOAD127 Phases=1 Bus1=1242.3.4 kV=0.23 kW=1 PF=0.95  daily=Shape_127
New Load.LOAD128 Phases=1 Bus1=1243.2.4 kV=0.23 kW=1 PF=0.95  daily=Shape_128
New Load.LOAD129 Phases=1 Bus1=1243.1.4 kV=0.23 kW=1 PF=0.95  daily=Shape_129
New Load.LOAD130 Phases=1 Bus1=1243.2.4 kV=0.23 kW=1 PF=0.95  daily=Shape_130
New Load.LOAD131 Phases=1 Bus1=1243.3.4 kV=0.23 kW=1 PF=0.95  daily=Shape_131
New Load.LOAD132 Phases=1 Bus1=1243.3.4 kV=0.23 kW=1 PF=0.95  daily=Shape_132
New Load.LOAD133 Phases=1 Bus1=1236.1.4 kV=0.23 kW=1 PF=0.95  daily=Shape_133
New Load.LOAD134 Phases=1 Bus1=1243.2.4 kV=0.23 kW=1 PF=0.95  daily=Shape_134
New Load.LOAD135 Phases=1 Bus1=1243.1.4 kV=0.23 kW=1 PF=0.95  daily=Shape_135
New Load.LOAD136 Phases=1 Bus1=1243.3.4 kV=0.23 kW=1 PF=0.95  daily=Shape_136
New Load.LOAD137 Phases=1 Bus1=1243.1.4 kV=0.23 kW=1 PF=0.95  daily=Shape_137
New Load.LOAD138 Phases=1 Bus1=1240.3.4 kV=0.23 kW=1 PF=0.95  daily=Shape_138
New Load.LOAD139 Phases=1 Bus1=1240.2.4 kV=0.23 kW=1 PF=0.95  daily=Shape_139
New Load.LOAD140 Phases=1 Bus1=1240.1.4 kV=0.23 kW=1 PF=0.95  daily=Shape_140
New Load.LOAD141 Phases=1 Bus1=1240.2.4 kV=0.23 kW=1 PF=0.95  daily=Shape_141
New Load.LOAD142 Phases=1 Bus1=1240.2.4 kV=0.23 kW=1 PF=0.95  daily=Shape_142
New Load.LOAD143 Phases=1 Bus1=1240.3.4 kV=0.23 kW=1 PF=0.95  daily=Shape_143
New Load.LOAD144 Phases=1 Bus1=1240.3.4 kV=0.23 kW=1 PF=0.95  daily=Shape_144
New Load.LOAD145 Phases=1 Bus1=1240.1.4 kV=0.23 kW=1 PF=0.95  daily=Shape_145
New Load.LOAD146 Phases=1 Bus1=1240.1.4 kV=0.23 kW=1 PF=0.95  daily=Shape_146
New Load.LOAD147 Phases=1 Bus1=1240.2.4 kV=0.23 kW=1 PF=0.95  daily=Shape_147
New Load.LOAD148 Phases=1 Bus1=1240.2.4 kV=0.23 kW=1 PF=0.95  daily=Shape_148
New Load.LOAD149 Phases=1 Bus1=1240.3.4 kV=0.23 kW=1 PF=0.95  daily=Shape_149
New Load.LOAD150 Phases=1 Bus1=1233.1.4 kV=0.23 kW=1 PF=0.95  daily=Shape_150
New Load.LOAD151 Phases=1 Bus1=1233.3.4 kV=0.23 kW=1 PF=0.95  daily=Shape_151
New Load.LOAD152 Phases=1 Bus1=1233.3.4 kV=0.23 kW=1 PF=0.95  daily=Shape_152
!New Load.LOAD153 Phases=1 Bus1=0.3.4 kV=0.4 kW=1 PF=0.95  daily=Shape_153
New Load.LOAD154 Phases=1 Bus1=1233.3.4 kV=0.23 kW=1 PF=0.95  daily=Shape_154
New Load.LOAD155 Phases=1 Bus1=1233.2.4 kV=0.23 kW=1 PF=0.95  daily=Shape_155
New Load.LOAD156 Phases=1 Bus1=1233.3.4 kV=0.23 kW=1 PF=0.95  daily=Shape_156
New Load.LOAD157 Phases=1 Bus1=1233.2.4 kV=0.23 kW=1 PF=0.95  daily=Shape_157
New Load.LOAD158 Phases=1 Bus1=1233.1.4 kV=0.23 kW=1 PF=0.95  daily=Shape_158
New Load.LOAD159 Phases=1 Bus1=1233.1.4 kV=0.23 kW=1 PF=0.95  daily=Shape_159
New Load.LOAD160 Phases=1 Bus1=1236.1.4 kV=0.23 kW=1 PF=0.95  daily=Shape_160
New Load.LOAD161 Phases=1 Bus1=1236.2.4 kV=0.23 kW=1 PF=0.95  daily=Shape_161
New Load.LOAD162 Phases=1 Bus1=1236.3.4 kV=0.23 kW=1 PF=0.95  daily=Shape_162
New Load.LOAD163 Phases=1 Bus1=1236.1.4 kV=0.23 kW=1 PF=0.95  daily=Shape_163
New Load.LOAD164 Phases=1 Bus1=1236.2.4 kV=0.23 kW=1 PF=0.95  daily=Shape_164
New Load.LOAD165 Phases=1 Bus1=1236.3.4 kV=0.23 kW=1 PF=0.95  daily=Shape_165
New Load.LOAD166 Phases=1 Bus1=1236.2.4 kV=0.23 kW=1 PF=0.95  daily=Shape_166
New Load.LOAD167 Phases=1 Bus1=1236.3.4 kV=0.23 kW=1 PF=0.95  daily=Shape_167
New Load.LOAD168 Phases=1 Bus1=1236.2.4 kV=0.23 kW=1 PF=0.95  daily=Shape_168
New Load.LOAD169 Phases=1 Bus1=1236.2.4 kV=0.23 kW=1 PF=0.95  daily=Shape_169
New Load.LOAD170 Phases=1 Bus1=1220.1.4 kV=0.23 kW=1 PF=0.95  daily=Shape_170
New Load.LOAD171 Phases=1 Bus1=1233.3.4 kV=0.23 kW=1 PF=0.95  daily=Shape_171
New Load.LOAD172 Phases=1 Bus1=1233.3.4 kV=0.23 kW=1 PF=0.95  daily=Shape_172
New Load.LOAD173 Phases=1 Bus1=1233.1.4 kV=0.23 kW=1 PF=0.95  daily=Shape_173
New Load.LOAD174 Phases=1 Bus1=1233.2.4 kV=0.23 kW=1 PF=0.95  daily=Shape_174
New Load.LOAD175 Phases=1 Bus1=1233.1.4 kV=0.23 kW=1 PF=0.95  daily=Shape_175
New Load.LOAD176 Phases=1 Bus1=1233.1.4 kV=0.23 kW=1 PF=0.95  daily=Shape_176
New Load.LOAD177 Phases=1 Bus1=1233.2.4 kV=0.23 kW=1 PF=0.95  daily=Shape_177
New Load.LOAD178 Phases=1 Bus1=1258.1.4 kV=0.23 kW=1 PF=0.95  daily=Shape_178
New Load.LOAD179 Phases=1 Bus1=1258.2.4 kV=0.23 kW=1 PF=0.95  daily=Shape_179
New Load.LOAD180 Phases=1 Bus1=1258.2.4 kV=0.23 kW=1 PF=0.95  daily=Shape_180
New Load.LOAD181 Phases=1 Bus1=1258.2.4 kV=0.23 kW=1 PF=0.95  daily=Shape_181
New Load.LOAD182 Phases=1 Bus1=1258.3.4 kV=0.23 kW=1 PF=0.95  daily=Shape_182
New Load.LOAD183 Phases=1 Bus1=1258.2.4 kV=0.23 kW=1 PF=0.95  daily=Shape_183
New Load.LOAD184 Phases=1 Bus1=1258.3.4 kV=0.23 kW=1 PF=0.95  daily=Shape_184
New Load.LOAD185 Phases=1 Bus1=1258.1.4 kV=0.23 kW=1 PF=0.95  daily=Shape_185
New Load.LOAD186 Phases=1 Bus1=1258.3.4 kV=0.23 kW=1 PF=0.95  daily=Shape_186
New Load.LOAD187 Phases=1 Bus1=1258.3.4 kV=0.23 kW=1 PF=0.95  daily=Shape_187
New Load.LOAD188 Phases=1 Bus1=1258.1.4 kV=0.23 kW=1 PF=0.95  daily=Shape_188
New Load.LOAD189 Phases=1 Bus1=1258.2.4 kV=0.23 kW=1 PF=0.95  daily=Shape_189
New Load.LOAD190 Phases=1 Bus1=1260.1.4 kV=0.23 kW=1 PF=0.95  daily=Shape_190
New Load.LOAD191 Phases=1 Bus1=1258.2.4 kV=0.23 kW=1 PF=0.95  daily=Shape_191
New Load.LOAD192 Phases=1 Bus1=1258.1.4 kV=0.23 kW=1 PF=0.95  daily=Shape_192
New Load.LOAD193 Phases=1 Bus1=1260.1.4 kV=0.23 kW=1 PF=0.95  daily=Shape_193
New Load.LOAD194 Phases=1 Bus1=1258.1.4 kV=0.23 kW=1 PF=0.95  daily=Shape_194
New Load.LOAD195 Phases=1 Bus1=1258.2.4 kV=0.23 kW=1 PF=0.95  daily=Shape_195
New Load.LOAD196 Phases=1 Bus1=1258.3.4 kV=0.23 kW=1 PF=0.95  daily=Shape_196
New Load.LOAD197 Phases=1 Bus1=1259.2.4 kV=0.23 kW=1 PF=0.95  daily=Shape_197
New Load.LOAD198 Phases=1 Bus1=1259.3.4 kV=0.23 kW=1 PF=0.95  daily=Shape_198
New Load.LOAD199 Phases=1 Bus1=1259.1.4 kV=0.23 kW=1 PF=0.95  daily=Shape_199
New Load.LOAD200 Phases=1 Bus1=1259.2.4 kV=0.23 kW=1 PF=0.95  daily=Shape_200
New Load.LOAD201 Phases=1 Bus1=1259.1.4 kV=0.23 kW=1 PF=0.95  daily=Shape_201
New Load.LOAD202 Phases=1 Bus1=1259.3.4 kV=0.23 kW=1 PF=0.95  daily=Shape_202
New Load.LOAD203 Phases=1 Bus1=1259.2.4 kV=0.23 kW=1 PF=0.95  daily=Shape_203
New Load.LOAD204 Phases=1 Bus1=1263.2.4 kV=0.23 kW=1 PF=0.95  daily=Shape_204
New Load.LOAD205 Phases=1 Bus1=1263.1.4 kV=0.23 kW=1 PF=0.95  daily=Shape_205
New Load.LOAD206 Phases=1 Bus1=1263.1.4 kV=0.23 kW=1 PF=0.95  daily=Shape_206
New Load.LOAD207 Phases=1 Bus1=1263.2.4 kV=0.23 kW=1 PF=0.95  daily=Shape_207
New Load.LOAD208 Phases=1 Bus1=1263.3.4 kV=0.23 kW=1 PF=0.95  daily=Shape_208
New Load.LOAD209 Phases=1 Bus1=1263.1.4 kV=0.23 kW=1 PF=0.95  daily=Shape_209
New Load.LOAD210 Phases=1 Bus1=1263.1.4 kV=0.23 kW=1 PF=0.95  daily=Shape_210
New Load.LOAD211 Phases=1 Bus1=1263.2.4 kV=0.23 kW=1 PF=0.95  daily=Shape_211
New Load.LOAD212 Phases=1 Bus1=1263.2.4 kV=0.23 kW=1 PF=0.95  daily=Shape_212
New Load.LOAD213 Phases=1 Bus1=1263.3.4 kV=0.23 kW=1 PF=0.95  daily=Shape_213
New Load.LOAD214 Phases=1 Bus1=1252.2.4 kV=0.23 kW=1 PF=0.95  daily=Shape_214
New Load.LOAD215 Phases=1 Bus1=1252.1.4 kV=0.23 kW=1 PF=0.95  daily=Shape_215
New Load.LOAD216 Phases=1 Bus1=1255.3.4 kV=0.23 kW=1 PF=0.95  daily=Shape_216
New Load.LOAD217 Phases=1 Bus1=1255.3.4 kV=0.23 kW=1 PF=0.95  daily=Shape_217
New Load.LOAD218 Phases=1 Bus1=1255.2.4 kV=0.23 kW=1 PF=0.95  daily=Shape_218
New Load.LOAD219 Phases=1 Bus1=1255.1.4 kV=0.23 kW=1 PF=0.95  daily=Shape_219
New Load.LOAD220 Phases=1 Bus1=1255.2.4 kV=0.23 kW=1 PF=0.95  daily=Shape_220
New Load.LOAD221 Phases=1 Bus1=1255.3.4 kV=0.23 kW=1 PF=0.95  daily=Shape_221
New Load.LOAD222 Phases=1 Bus1=1255.1.4 kV=0.23 kW=1 PF=0.95  daily=Shape_222
New Load.LOAD223 Phases=1 Bus1=1255.2.4 kV=0.23 kW=1 PF=0.95  daily=Shape_223
New Load.LOAD224 Phases=1 Bus1=1255.3.4 kV=0.23 kW=1 PF=0.95  daily=Shape_224
New Load.LOAD225 Phases=1 Bus1=1255.2.4 kV=0.23 kW=1 PF=0.95  daily=Shape_225
New Load.LOAD226 Phases=1 Bus1=1259.3.4 kV=0.23 kW=1 PF=0.95  daily=Shape_226
New Load.LOAD227 Phases=1 Bus1=1259.1.4 kV=0.23 kW=1 PF=0.95  daily=Shape_227
New Load.LOAD228 Phases=1 Bus1=1259.2.4 kV=0.23 kW=1 PF=0.95  daily=Shape_228
New Load.LOAD229 Phases=1 Bus1=1259.3.4 kV=0.23 kW=1 PF=0.95  daily=Shape_229
New Load.LOAD230 Phases=1 Bus1=1259.3.4 kV=0.23 kW=1 PF=0.95  daily=Shape_230
New Load.LOAD231 Phases=1 Bus1=1259.1.4 kV=0.23 kW=1 PF=0.95  daily=Shape_231
New Load.LOAD232 Phases=1 Bus1=1259.1.4 kV=0.23 kW=1 PF=0.95  daily=Shape_232
New Load.LOAD233 Phases=1 Bus1=1259.2.4 kV=0.23 kW=1 PF=0.95  daily=Shape_233
New Load.LOAD234 Phases=1 Bus1=1259.3.4 kV=0.23 kW=1 PF=0.95  daily=Shape_234
New Load.LOAD235 Phases=1 Bus1=1259.3.4 kV=0.23 kW=1 PF=0.95  daily=Shape_235
New Load.LOAD236 Phases=1 Bus1=1273.1.4 kV=0.23 kW=1 PF=0.95  daily=Shape_236
New Load.LOAD237 Phases=1 Bus1=1273.1.4 kV=0.23 kW=1 PF=0.95  daily=Shape_237
New Load.LOAD238 Phases=1 Bus1=1273.2.4 kV=0.23 kW=1 PF=0.95  daily=Shape_238
New Load.LOAD239 Phases=1 Bus1=1273.1.4 kV=0.23 kW=1 PF=0.95  daily=Shape_239
New Load.LOAD240 Phases=1 Bus1=1273.3.4 kV=0.23 kW=1 PF=0.95  daily=Shape_240
New Load.LOAD241 Phases=1 Bus1=1273.3.4 kV=0.23 kW=1 PF=0.95  daily=Shape_241
New Load.LOAD242 Phases=1 Bus1=1273.1.4 kV=0.23 kW=1 PF=0.95  daily=Shape_242
New Load.LOAD243 Phases=1 Bus1=1273.2.4 kV=0.23 kW=1 PF=0.95  daily=Shape_243
New Load.LOAD244 Phases=1 Bus1=1273.1.4 kV=0.23 kW=1 PF=0.95  daily=Shape_244
New Load.LOAD245 Phases=1 Bus1=1273.1.4 kV=0.23 kW=1 PF=0.95  daily=Shape_245
New Load.LOAD246 Phases=1 Bus1=1260.1.4 kV=0.23 kW=1 PF=0.95  daily=Shape_246
New Load.LOAD247 Phases=1 Bus1=1260.2.4 kV=0.23 kW=1 PF=0.95  daily=Shape_247
New Load.LOAD248 Phases=1 Bus1=1260.2.4 kV=0.23 kW=1 PF=0.95  daily=Shape_248
New Load.LOAD249 Phases=1 Bus1=1260.3.4 kV=0.23 kW=1 PF=0.95  daily=Shape_249
New Load.LOAD250 Phases=1 Bus1=1260.2.4 kV=0.23 kW=1 PF=0.95  daily=Shape_250
New Load.LOAD251 Phases=1 Bus1=1260.1.4 kV=0.23 kW=1 PF=0.95  daily=Shape_251
New Load.LOAD252 Phases=1 Bus1=1260.3.4 kV=0.23 kW=1 PF=0.95  daily=Shape_252
New Load.LOAD253 Phases=1 Bus1=1260.3.4 kV=0.23 kW=1 PF=0.95  daily=Shape_253
New Load.LOAD254 Phases=1 Bus1=1260.2.4 kV=0.23 kW=1 PF=0.95  daily=Shape_254
New Load.LOAD255 Phases=1 Bus1=1260.1.4 kV=0.23 kW=1 PF=0.95  daily=Shape_255
New Load.LOAD256 Phases=1 Bus1=1260.3.4 kV=0.23 kW=1 PF=0.95  daily=Shape_256
New Load.LOAD257 Phases=1 Bus1=1260.3.4 kV=0.23 kW=1 PF=0.95  daily=Shape_257
New Load.LOAD258 Phases=1 Bus1=1260.3.4 kV=0.23 kW=1 PF=0.95  daily=Shape_258
New Load.LOAD259 Phases=1 Bus1=1260.2.4 kV=0.23 kW=1 PF=0.95  daily=Shape_259
New Load.LOAD260 Phases=1 Bus1=1260.2.4 kV=0.23 kW=1 PF=0.95  daily=Shape_260
New Load.LOAD261 Phases=1 Bus1=1260.1.4 kV=0.23 kW=1 PF=0.95  daily=Shape_261
New Load.LOAD262 Phases=1 Bus1=1260.1.4 kV=0.23 kW=1 PF=0.95  daily=Shape_262
New Load.LOAD263 Phases=1 Bus1=1260.3.4 kV=0.23 kW=1 PF=0.95  daily=Shape_263
New Load.LOAD264 Phases=1 Bus1=1252.3.4 kV=0.23 kW=1 PF=0.95  daily=Shape_264
New Load.LOAD265 Phases=1 Bus1=1252.2.4 kV=0.23 kW=1 PF=0.95  daily=Shape_265
New Load.LOAD266 Phases=1 Bus1=1252.3.4 kV=0.23 kW=1 PF=0.95  daily=Shape_266
New Load.LOAD267 Phases=1 Bus1=1252.1.4 kV=0.23 kW=1 PF=0.95  daily=Shape_267
New Load.LOAD268 Phases=1 Bus1=1252.1.4 kV=0.23 kW=1 PF=0.95  daily=Shape_268
New Load.LOAD269 Phases=1 Bus1=1252.1.4 kV=0.23 kW=1 PF=0.95  daily=Shape_269
New Load.LOAD270 Phases=1 Bus1=1252.2.4 kV=0.23 kW=1 PF=0.95  daily=Shape_270
New Load.LOAD271 Phases=1 Bus1=1252.1.4 kV=0.23 kW=1 PF=0.95  daily=Shape_271
New Load.LOAD272 Phases=1 Bus1=1252.1.4 kV=0.23 kW=1 PF=0.95  daily=Shape_272
New Load.LOAD273 Phases=1 Bus1=1252.2.4 kV=0.23 kW=1 PF=0.95  daily=Shape_273
New Load.LOAD274 Phases=1 Bus1=1252.3.4 kV=0.23 kW=1 PF=0.95  daily=Shape_274
New Load.LOAD275 Phases=1 Bus1=1252.3.4 kV=0.23 kW=1 PF=0.95  daily=Shape_275
New Load.LOAD276 Phases=1 Bus1=1252.3.4 kV=0.23 kW=1 PF=0.95  daily=Shape_276
New Load.LOAD277 Phases=1 Bus1=1252.2.4 kV=0.23 kW=1 PF=0.95  daily=Shape_277
New Load.LOAD278 Phases=1 Bus1=1263.3.4 kV=0.23 kW=1 PF=0.95  daily=Shape_278
New Load.LOAD279 Phases=1 Bus1=1263.1.4 kV=0.23 kW=1 PF=0.95  daily=Shape_279
New Load.LOAD280 Phases=1 Bus1=1263.2.4 kV=0.23 kW=1 PF=0.95  daily=Shape_280
New Load.LOAD281 Phases=1 Bus1=1263.3.4 kV=0.23 kW=1 PF=0.95  daily=Shape_281
New Load.LOAD282 Phases=1 Bus1=1263.3.4 kV=0.23 kW=1 PF=0.95  daily=Shape_282
New Load.LOAD283 Phases=1 Bus1=1273.1.4 kV=0.23 kW=1 PF=0.95  daily=Shape_283
New Load.LOAD284 Phases=1 Bus1=1273.3.4 kV=0.23 kW=1 PF=0.95  daily=Shape_284
New Load.LOAD285 Phases=1 Bus1=1273.2.4 kV=0.23 kW=1 PF=0.95  daily=Shape_285
New Load.LOAD286 Phases=1 Bus1=1273.3.4 kV=0.23 kW=1 PF=0.95  daily=Shape_286
New Load.LOAD287 Phases=1 Bus1=1273.3.4 kV=0.23 kW=1 PF=0.95  daily=Shape_287
New Load.LOAD288 Phases=1 Bus1=1273.1.4 kV=0.23 kW=1 PF=0.95  daily=Shape_288
New Load.LOAD289 Phases=1 Bus1=1273.3.4 kV=0.23 kW=1 PF=0.95  daily=Shape_289
New Load.LOAD290 Phases=1 Bus1=1273.3.4 kV=0.23 kW=1 PF=0.95  daily=Shape_290
New Load.LOAD291 Phases=1 Bus1=1273.1.4 kV=0.23 kW=1 PF=0.95  daily=Shape_291
New Load.LOAD292 Phases=1 Bus1=1273.1.4 kV=0.23 kW=1 PF=0.95  daily=Shape_292
New Load.LOAD293 Phases=1 Bus1=1222.1.4 kV=0.23 kW=1 PF=0.95  daily=Shape_293
New Load.LOAD294 Phases=1 Bus1=1222.3.4 kV=0.23 kW=1 PF=0.95  daily=Shape_294
New Load.LOAD295 Phases=1 Bus1=1228.1.4 kV=0.23 kW=1 PF=0.95  daily=Shape_295
New Load.LOAD296 Phases=1 Bus1=1228.2.4 kV=0.23 kW=1 PF=0.95  daily=Shape_296
New Load.LOAD297 Phases=1 Bus1=1228.2.4 kV=0.23 kW=1 PF=0.95  daily=Shape_297
New Load.LOAD298 Phases=1 Bus1=1228.1.4 kV=0.23 kW=1 PF=0.95  daily=Shape_298
New Load.LOAD299 Phases=1 Bus1=1228.3.4 kV=0.23 kW=1 PF=0.95  daily=Shape_299
New Load.LOAD300 Phases=1 Bus1=1228.2.4 kV=0.23 kW=1 PF=0.95  daily=Shape_300
New Load.LOAD301 Phases=1 Bus1=1228.3.4 kV=0.23 kW=1 PF=0.95  daily=Shape_301
New Load.LOAD302 Phases=1 Bus1=1228.2.4 kV=0.23 kW=1 PF=0.95  daily=Shape_302
New Load.LOAD303 Phases=1 Bus1=1228.3.4 kV=0.23 kW=1 PF=0.95  daily=Shape_303
New Load.LOAD304 Phases=1 Bus1=1228.3.4 kV=0.23 kW=1 PF=0.95  daily=Shape_304
New Load.LOAD305 Phases=1 Bus1=1224.2.4 kV=0.23 kW=1 PF=0.95  daily=Shape_305
New Load.LOAD306 Phases=1 Bus1=1224.2.4 kV=0.23 kW=1 PF=0.95  daily=Shape_306
New Load.LOAD307 Phases=1 Bus1=1224.2.4 kV=0.23 kW=1 PF=0.95  daily=Shape_307
New Load.LOAD308 Phases=1 Bus1=1222.1.4 kV=0.23 kW=1 PF=0.95  daily=Shape_308
New Load.LOAD309 Phases=1 Bus1=1222.3.4 kV=0.23 kW=1 PF=0.95  daily=Shape_309
New Load.LOAD310 Phases=1 Bus1=1222.2.4 kV=0.23 kW=1 PF=0.95  daily=Shape_310
New Load.LOAD311 Phases=1 Bus1=1222.3.4 kV=0.23 kW=1 PF=0.95  daily=Shape_311
New Load.LOAD312 Phases=1 Bus1=1224.3.4 kV=0.23 kW=1 PF=0.95  daily=Shape_312
New Load.LOAD313 Phases=1 Bus1=1224.2.4 kV=0.23 kW=1 PF=0.95  daily=Shape_313
New Load.LOAD314 Phases=1 Bus1=1224.2.4 kV=0.23 kW=1 PF=0.95  daily=Shape_314
New Load.LOAD315 Phases=1 Bus1=1224.2.4 kV=0.23 kW=1 PF=0.95  daily=Shape_315
New Load.LOAD316 Phases=1 Bus1=1224.1.4 kV=0.23 kW=1 PF=0.95  daily=Shape_316
New Load.LOAD317 Phases=1 Bus1=1224.1.4 kV=0.23 kW=1 PF=0.95  daily=Shape_317
New Load.LOAD318 Phases=1 Bus1=1224.2.4 kV=0.23 kW=1 PF=0.95  daily=Shape_318
New Load.LOAD319 Phases=1 Bus1=1224.2.4 kV=0.23 kW=1 PF=0.95  daily=Shape_319
New Load.LOAD320 Phases=1 Bus1=1224.3.4 kV=0.23 kW=1 PF=0.95  daily=Shape_320
New Load.LOAD321 Phases=1 Bus1=1224.1.4 kV=0.23 kW=1 PF=0.95  daily=Shape_321
New Load.LOAD322 Phases=1 Bus1=1224.3.4 kV=0.23 kW=1 PF=0.95  daily=Shape_322
New Load.LOAD323 Phases=1 Bus1=1224.1.4 kV=0.23 kW=1 PF=0.95  daily=Shape_323
New Load.LOAD324 Phases=1 Bus1=1224.3.4 kV=0.23 kW=1 PF=0.95  daily=Shape_324
New Load.LOAD325 Phases=1 Bus1=1222.2.4 kV=0.23 kW=1 PF=0.95  daily=Shape_325
New Load.LOAD326 Phases=1 Bus1=1222.3.4 kV=0.23 kW=1 PF=0.95  daily=Shape_326
New Load.LOAD327 Phases=1 Bus1=1222.2.4 kV=0.23 kW=1 PF=0.95  daily=Shape_327
New Load.LOAD328 Phases=1 Bus1=1222.3.4 kV=0.23 kW=1 PF=0.95  daily=Shape_328
New Load.LOAD329 Phases=1 Bus1=1222.2.4 kV=0.23 kW=1 PF=0.95  daily=Shape_329
New Load.LOAD330 Phases=1 Bus1=1222.1.4 kV=0.23 kW=1 PF=0.95  daily=Shape_330
New Load.LOAD331 Phases=1 Bus1=1222.1.4 kV=0.23 kW=1 PF=0.95  daily=Shape_331
New Load.LOAD332 Phases=1 Bus1=1222.3.4 kV=0.23 kW=1 PF=0.95  daily=Shape_332
New Load.LOAD333 Phases=1 Bus1=1222.3.4 kV=0.23 kW=1 PF=0.95  daily=Shape_333
New Load.LOAD334 Phases=1 Bus1=1222.2.4 kV=0.23 kW=1 PF=0.95  daily=Shape_334
New Load.LOAD335 Phases=1 Bus1=1258.3.4 kV=0.23 kW=1 PF=0.95  daily=Shape_335
New Load.LOAD336 Phases=1 Bus1=1228.1.4 kV=0.23 kW=1 PF=0.95  daily=Shape_336
New Load.LOAD337 Phases=1 Bus1=1228.1.4 kV=0.23 kW=1 PF=0.95  daily=Shape_337
New Load.LOAD338 Phases=1 Bus1=1228.1.4 kV=0.23 kW=1 PF=0.95  daily=Shape_338
New Load.LOAD339 Phases=1 Bus1=1228.3.4 kV=0.23 kW=1 PF=0.95  daily=Shape_339
New Load.LOAD340 Phases=1 Bus1=1228.3.4 kV=0.23 kW=1 PF=0.95  daily=Shape_340
New Load.LOAD341 Phases=1 Bus1=1228.2.4 kV=0.23 kW=1 PF=0.95  daily=Shape_341
New Load.LOAD342 Phases=1 Bus1=1228.1.4 kV=0.23 kW=1 PF=0.95  daily=Shape_342
New Load.LOAD343 Phases=1 Bus1=1228.3.4 kV=0.23 kW=1 PF=0.95  daily=Shape_343
New Load.LOAD344 Phases=1 Bus1=1228.2.4 kV=0.23 kW=1 PF=0.95  daily=Shape_344
New Load.LOAD345 Phases=1 Bus1=1235.1.4 kV=0.23 kW=1 PF=0.95  daily=Shape_345
New Load.LOAD346 Phases=1 Bus1=1270.3.4 kV=0.23 kW=1 PF=0.95  daily=Shape_346
New Load.LOAD347 Phases=1 Bus1=1259.1.4 kV=0.23 kW=1 PF=0.95  daily=Shape_347
New Load.LOAD348 Phases=1 Bus1=1252.1.4 kV=0.23 kW=1 PF=0.95  daily=Shape_348
New Load.LOAD349 Phases=3 Bus1=1247.1.2.3.4 kV=0.4 kW=1 PF=0.95  daily=Shape_349
New Load.LOAD350 Phases=3 Bus1=1247.1.2.3.4 kV=0.4 kW=1 PF=0.95  daily=Shape_350
New Load.LOAD351 Phases=3 Bus1=1243.1.2.3.4 kV=0.4 kW=1 PF=0.95  daily=Shape_351
New Load.LOAD352 Phases=3 Bus1=1267.1.2.3.4 kV=0.4 kW=1 PF=0.95  daily=Shape_352
New Load.LOAD353 Phases=3 Bus1=1267.1.2.3.4 kV=0.4 kW=1 PF=0.95  daily=Shape_353
...
!New Load.LOAD1316 Phases=1 Bus1=0.1.4 kV=0.4 kW=1 PF=0.95  daily=Shape_1316
New Load.LOAD1317 Phases=1 Bus1=721.2.4 kV=0.23 kW=1 PF=0.95  daily=Shape_1317
New Load.LOAD1318 Phases=1 Bus1=544.2.4 kV=0.23 kW=1 PF=0.95  daily=Shape_1318
New Load.LOAD1319 Phases=1 Bus1=636.1.4 kV=0.23 kW=1 PF=0.95  daily=Shape_1319
New Load.LOAD1320 Phases=1 Bus1=555.2.4 kV=0.23 kW=1 PF=0.95  daily=Shape_1320
New Load.LOAD1321 Phases=1 Bus1=689.2.4 kV=0.23 kW=1 PF=0.95  daily=Shape_1321
New Load.LOAD1322 Phases=1 Bus1=671.3.4 kV=0.23 kW=1 PF=0.95  daily=Shape_1322
New Load.LOAD1323 Phases=1 Bus1=671.2.4 kV=0.23 kW=1 PF=0.95  daily=Shape_1323
New Load.LOAD1324 Phases=1 Bus1=550.1.4 kV=0.23 kW=1 PF=0.95  daily=Shape_1324
New Load.LOAD1325 Phases=1 Bus1=731.2.4 kV=0.23 kW=1 PF=0.95  daily=Shape_1325
New Load.LOAD1326 Phases=1 Bus1=593.1.4 kV=0.23 kW=1 PF=0.95  daily=Shape_1326
New Load.LOAD1327 Phases=1 Bus1=665.3.4 kV=0.23 kW=1 PF=0.95  daily=Shape_1327
New Load.LOAD1328 Phases=1 Bus1=665.2.4 kV=0.23 kW=1 PF=0.95  daily=Shape_1328
New Load.LOAD1329 Phases=1 Bus1=665.1.4 kV=0.23 kW=1 PF=0.95  daily=Shape_1329
New Load.LOAD1330 Phases=1 Bus1=636.2.4 kV=0.23 kW=1 PF=0.95  daily=Shape_1330
New Load.LOAD1331 Phases=3 Bus1=609.1.2.3.4 kV=0.4 kW=1 PF=0.95  daily=Shape_1331
New Load.LOAD1332 Phases=3 Bus1=588.1.2.3.4 kV=0.4 kW=1 PF=0.95  daily=Shape_1332
New Load.LOAD1333 Phases=3 Bus1=653.1.2.3.4 kV=0.4 kW=1 PF=0.95  daily=Shape_1333
New Load.LOAD1334 Phases=3 Bus1=632.1.2.3.4 kV=0.4 kW=1 PF=0.95  daily=Shape_1334
New Load.LOAD1335 Phases=3 Bus1=608.1.2.3.4 kV=0.4 kW=1 PF=0.95  daily=Shape_1335
New Load.LOAD1336 Phases=3 Bus1=554.1.2.3.4 kV=0.4 kW=1 PF=0.95  daily=Shape_1336
New Load.LOAD1337 Phases=3 Bus1=561.1.2.3.4 kV=0.4 kW=1 PF=0.95  daily=Shape_1337
New Load.LOAD1338 Phases=1 Bus1=659.3.4 kV=0.23 kW=1 PF=0.95  daily=Shape_1338
New Load.LOAD1339 Phases=1 Bus1=747.3.4 kV=0.23 kW=1 PF=0.95  daily=Shape_1339
New Load.LOAD1340 Phases=1 Bus1=2227.3.4 kV=0.23 kW=1 PF=0.95  daily=Shape_1340
New Load.LOAD1341 Phases=1 Bus1=826.2.4 kV=0.23 kW=1 PF=0.95  daily=Shape_1341
New Load.LOAD1342 Phases=1 Bus1=826.1.4 kV=0.23 kW=1 PF=0.95  daily=Shape_1342
New Load.LOAD1343 Phases=1 Bus1=826.1.4 kV=0.23 kW=1 PF=0.95  daily=Shape_1343
New Load.LOAD1344 Phases=1 Bus1=826.3.4 kV=0.23 kW=1 PF=0.95  daily=Shape_1344
New Load.LOAD1345 Phases=1 Bus1=826.1.4 kV=0.23 kW=1 PF=0.95  daily=Shape_1345
New Load.LOAD1346 Phases=1 Bus1=826.2.4 kV=0.23 kW=1 PF=0.95  daily=Shape_1346
New Load.LOAD1347 Phases=1 Bus1=826.1.4 kV=0.23 kW=1 PF=0.95  daily=Shape_1347
New Load.LOAD1348 Phases=1 Bus1=826.3.4 kV=0.23 kW=1 PF=0.95  daily=Shape_1348
New Load.LOAD1349 Phases=1 Bus1=793.3.4 kV=0.23 kW=1 PF=0.95  daily=Shape_1349
New Load.LOAD1350 Phases=1 Bus1=788.1.4 kV=0.23 kW=1 PF=0.95  daily=Shape_1350
New Load.LOAD1351 Phases=1 Bus1=847.1.4 kV=0.23 kW=1 PF=0.95  daily=Shape_1351
New Load.LOAD1352 Phases=1 Bus1=827.1.4 kV=0.23 kW=1 PF=0.95  daily=Shape_1352
New Load.LOAD1353 Phases=1 Bus1=827.1.4 kV=0.23 kW=1 PF=0.95  daily=Shape_1353
New Load.LOAD1354 Phases=1 Bus1=799.3.4 kV=0.23 kW=1 PF=0.95  daily=Shape_1354
New Load.LOAD1355 Phases=1 Bus1=799.3.4 kV=0.23 kW=1 PF=0.95  daily=Shape_1355
New Load.LOAD1356 Phases=1 Bus1=799.2.4 kV=0.23 kW=1 PF=0.95  daily=Shape_1356
New Load.LOAD1357 Phases=1 Bus1=791.2.4 kV=0.23 kW=1 PF=0.95  daily=Shape_1357
New Load.LOAD1358 Phases=1 Bus1=837.2.4 kV=0.23 kW=1 PF=0.95  daily=Shape_1358
New Load.LOAD1359 Phases=1 Bus1=826.2.4 kV=0.23 kW=1 PF=0.95  daily=Shape_1359
New Load.LOAD1360 Phases=1 Bus1=826.1.4 kV=0.23 kW=1 PF=0.95  daily=Shape_1360
New Load.LOAD1361 Phases=1 Bus1=826.1.4 kV=0.23 kW=1 PF=0.95  daily=Shape_1361
New Load.LOAD1362 Phases=1 Bus1=826.2.4 kV=0.23 kW=1 PF=0.95  daily=Shape_1362
New Load.LOAD1363 Phases=1 Bus1=826.1.4 kV=0.23 kW=1 PF=0.95  daily=Shape_1363
New Load.LOAD1364 Phases=1 Bus1=826.1.4 kV=0.23 kW=1 PF=0.95  daily=Shape_1364
New Load.LOAD1365 Phases=1 Bus1=827.1.4 kV=0.23 kW=1 PF=0.95  daily=Shape_1365
New Load.LOAD1366 Phases=1 Bus1=827.2.4 kV=0.23 kW=1 PF=0.95  daily=Shape_1366
New Load.LOAD1367 Phases=1 Bus1=827.2.4 kV=0.23 kW=1 PF=0.95  daily=Shape_1367
New Load.LOAD1368 Phases=1 Bus1=827.2.4 kV=0.23 kW=1 PF=0.95  daily=Shape_1368
New Load.LOAD1369 Phases=1 Bus1=827.1.4 kV=0.23 kW=1 PF=0.95  daily=Shape_1369
New Load.LOAD1370 Phases=1 Bus1=827.2.4 kV=0.23 kW=1 PF=0.95  daily=Shape_1370
New Load.LOAD1371 Phases=1 Bus1=847.2.4 kV=0.23 kW=1 PF=0.95  daily=Shape_1371
New Load.LOAD1372 Phases=1 Bus1=847.2.4 kV=0.23 kW=1 PF=0.95  daily=Shape_1372
New Load.LOAD1373 Phases=1 Bus1=847.2.4 kV=0.23 kW=1 PF=0.95  daily=Shape_1373
New Load.LOAD1374 Phases=1 Bus1=847.1.4 kV=0.23 kW=1 PF=0.95  daily=Shape_1374
New Load.LOAD1375 Phases=1 Bus1=826.3.4 kV=0.23 kW=1 PF=0.95  daily=Shape_1375
New Load.LOAD1376 Phases=1 Bus1=847.1.4 kV=0.23 kW=1 PF=0.95  daily=Shape_1376
New Load.LOAD1377 Phases=1 Bus1=826.1.4 kV=0.23 kW=1 PF=0.95  daily=Shape_1377
New Load.LOAD1378 Phases=1 Bus1=799.2.4 kV=0.23 kW=1 PF=0.95  daily=Shape_1378
New Load.LOAD1379 Phases=1 Bus1=826.2.4 kV=0.23 kW=1 PF=0.95  daily=Shape_1379
New Load.LOAD1380 Phases=1 Bus1=826.3.4 kV=0.23 kW=1 PF=0.95  daily=Shape_1380
New Load.LOAD1381 Phases=1 Bus1=847.1.4 kV=0.23 kW=1 PF=0.95  daily=Shape_1381
New Load.LOAD1382 Phases=1 Bus1=847.3.4 kV=0.23 kW=1 PF=0.95  daily=Shape_1382
New Load.LOAD1383 Phases=1 Bus1=847.1.4 kV=0.23 kW=1 PF=0.95  daily=Shape_1383
New Load.LOAD1384 Phases=1 Bus1=847.3.4 kV=0.23 kW=1 PF=0.95  daily=Shape_1384
New Load.LOAD1385 Phases=1 Bus1=847.3.4 kV=0.23 kW=1 PF=0.95  daily=Shape_1385
New Load.LOAD1386 Phases=1 Bus1=847.2.4 kV=0.23 kW=1 PF=0.95  daily=Shape_1386
New Load.LOAD1387 Phases=1 Bus1=847.2.4 kV=0.23 kW=1 PF=0.95  daily=Shape_1387
New Load.LOAD1388 Phases=1 Bus1=796.2.4 kV=0.23 kW=1 PF=0.95  daily=Shape_1388
New Load.LOAD1389 Phases=1 Bus1=836.2.4 kV=0.23 kW=1 PF=0.95  daily=Shape_1389
New Load.LOAD1390 Phases=1 Bus1=826.3.4 kV=0.23 kW=1 PF=0.95  daily=Shape_1390
New Load.LOAD1391 Phases=1 Bus1=826.2.4 kV=0.23 kW=1 PF=0.95  daily=Shape_1391
New Load.LOAD1392 Phases=1 Bus1=764.2.4 kV=0.23 kW=1 PF=0.95  daily=Shape_1392
New Load.LOAD1393 Phases=1 Bus1=824.3.4 kV=0.23 kW=1 PF=0.95  daily=Shape_1393
New Load.LOAD1394 Phases=1 Bus1=799.1.4 kV=0.23 kW=1 PF=0.95  daily=Shape_1394
New Load.LOAD1395 Phases=1 Bus1=821.2.4 kV=0.23 kW=1 PF=0.95  daily=Shape_1395
New Load.LOAD1396 Phases=1 Bus1=845.3.4 kV=0.23 kW=1 PF=0.95  daily=Shape_1396
New Load.LOAD1397 Phases=1 Bus1=841.1.4 kV=0.23 kW=1 PF=0.95  daily=Shape_1397
New Load.LOAD1398 Phases=1 Bus1=841.3.4 kV=0.23 kW=1 PF=0.95  daily=Shape_1398
New Load.LOAD1399 Phases=1 Bus1=841.2.4 kV=0.23 kW=1 PF=0.95  daily=Shape_1399
New Load.LOAD1400 Phases=1 Bus1=850.2.4 kV=0.23 kW=1 PF=0.95  daily=Shape_1400
New Load.LOAD1401 Phases=1 Bus1=850.3.4 kV=0.23 kW=1 PF=0.95  daily=Shape_1401
New Load.LOAD1402 Phases=1 Bus1=841.2.4 kV=0.23 kW=1 PF=0.95  daily=Shape_1402
New Load.LOAD1403 Phases=1 Bus1=841.3.4 kV=0.23 kW=1 PF=0.95  daily=Shape_1403
New Load.LOAD1404 Phases=1 Bus1=841.3.4 kV=0.23 kW=1 PF=0.95  daily=Shape_1404
New Load.LOAD1405 Phases=1 Bus1=841.1.4 kV=0.23 kW=1 PF=0.95  daily=Shape_1405
New Load.LOAD1406 Phases=1 Bus1=810.3.4 kV=0.23 kW=1 PF=0.95  daily=Shape_1406
New Load.LOAD1407 Phases=1 Bus1=828.1.4 kV=0.23 kW=1 PF=0.95  daily=Shape_1407
New Load.LOAD1408 Phases=1 Bus1=839.2.4 kV=0.23 kW=1 PF=0.95  daily=Shape_1408
New Load.LOAD1409 Phases=1 Bus1=837.2.4 kV=0.23 kW=1 PF=0.95  daily=Shape_1409
New Load.LOAD1410 Phases=1 Bus1=837.3.4 kV=0.23 kW=1 PF=0.95  daily=Shape_1410
New Load.LOAD1411 Phases=1 Bus1=837.1.4 kV=0.23 kW=1 PF=0.95  daily=Shape_1411
New Load.LOAD1412 Phases=1 Bus1=837.3.4 kV=0.23 kW=1 PF=0.95  daily=Shape_1412
New Load.LOAD1413 Phases=1 Bus1=837.1.4 kV=0.23 kW=1 PF=0.95  daily=Shape_1413
New Load.LOAD1414 Phases=1 Bus1=857.3.4 kV=0.23 kW=1 PF=0.95  daily=Shape_1414
New Load.LOAD1415 Phases=1 Bus1=857.3.4 kV=0.23 kW=1 PF=0.95  daily=Shape_1415
New Load.LOAD1416 Phases=1 Bus1=857.2.4 kV=0.23 kW=1 PF=0.95  daily=Shape_1416
New Load.LOAD1417 Phases=1 Bus1=857.3.4 kV=0.23 kW=1 PF=0.95  daily=Shape_1417
New Load.LOAD1418 Phases=1 Bus1=857.1.4 kV=0.23 kW=1 PF=0.95  daily=Shape_1418
New Load.LOAD1419 Phases=1 Bus1=857.1.4 kV=0.23 kW=1 PF=0.95  daily=Shape_1419
New Load.LOAD1420 Phases=1 Bus1=857.1.4 kV=0.23 kW=1 PF=0.95  daily=Shape_1420
New Load.LOAD1421 Phases=1 Bus1=857.2.4 kV=0.23 kW=1 PF=0.95  daily=Shape_1421
New Load.LOAD1422 Phases=1 Bus1=857.2.4 kV=0.23 kW=1 PF=0.95  daily=Shape_1422
New Load.LOAD1423 Phases=1 Bus1=857.1.4 kV=0.23 kW=1 PF=0.95  daily=Shape_1423
New Load.LOAD1424 Phases=1 Bus1=856.2.4 kV=0.23 kW=1 PF=0.95  daily=Shape_1424
New Load.LOAD1425 Phases=1 Bus1=856.1.4 kV=0.23 kW=1 PF=0.95  daily=Shape_1425
New Load.LOAD1426 Phases=1 Bus1=856.2.4 kV=0.23 kW=1 PF=0.95  daily=Shape_1426
New Load.LOAD1427 Phases=1 Bus1=856.1.4 kV=0.23 kW=1 PF=0.95  daily=Shape_1427
New Load.LOAD1428 Phases=1 Bus1=856.2.4 kV=0.23 kW=1 PF=0.95  daily=Shape_1428
New Load.LOAD1429 Phases=1 Bus1=856.1.4 kV=0.23 kW=1 PF=0.95  daily=Shape_1429
New Load.LOAD1430 Phases=1 Bus1=856.1.4 kV=0.23 kW=1 PF=0.95  daily=Shape_1430
New Load.LOAD1431 Phases=1 Bus1=856.1.4 kV=0.23 kW=1 PF=0.95  daily=Shape_1431
New Load.LOAD1432 Phases=1 Bus1=856.2.4 kV=0.23 kW=1 PF=0.95  daily=Shape_1432
New Load.LOAD1433 Phases=1 Bus1=803.2.4 kV=0.23 kW=1 PF=0.95  daily=Shape_1433
New Load.LOAD1434 Phases=1 Bus1=811.3.4 kV=0.23 kW=1 PF=0.95  daily=Shape_1434
New Load.LOAD1435 Phases=1 Bus1=773.2.4 kV=0.23 kW=1 PF=0.95  daily=Shape_1435
New Load.LOAD1436 Phases=1 Bus1=820.1.4 kV=0.23 kW=1 PF=0.95  daily=Shape_1436
New Load.LOAD1437 Phases=1 Bus1=820.3.4 kV=0.23 kW=1 PF=0.95  daily=Shape_1437
New Load.LOAD1438 Phases=1 Bus1=820.2.4 kV=0.23 kW=1 PF=0.95  daily=Shape_1438
New Load.LOAD1439 Phases=1 Bus1=820.3.4 kV=0.23 kW=1 PF=0.95  daily=Shape_1439
New Load.LOAD1440 Phases=1 Bus1=820.3.4 kV=0.23 kW=1 PF=0.95  daily=Shape_1440
New Load.LOAD1441 Phases=1 Bus1=820.2.4 kV=0.23 kW=1 PF=0.95  daily=Shape_1441
New Load.LOAD1442 Phases=1 Bus1=857.2.4 kV=0.23 kW=1 PF=0.95  daily=Shape_1442
New Load.LOAD1443 Phases=1 Bus1=857.1.4 kV=0.23 kW=1 PF=0.95  daily=Shape_1443
New Load.LOAD1444 Phases=1 Bus1=820.1.4 kV=0.23 kW=1 PF=0.95  daily=Shape_1444
New Load.LOAD1445 Phases=1 Bus1=820.2.4 kV=0.23 kW=1 PF=0.95  daily=Shape_1445
New Load.LOAD1446 Phases=1 Bus1=820.3.4 kV=0.23 kW=1 PF=0.95  daily=Shape_1446
New Load.LOAD1447 Phases=1 Bus1=857.3.4 kV=0.23 kW=1 PF=0.95  daily=Shape_1447
New Load.LOAD1448 Phases=1 Bus1=857.3.4 kV=0.23 kW=1 PF=0.95  daily=Shape_1448
New Load.LOAD1449 Phases=1 Bus1=820.3.4 kV=0.23 kW=1 PF=0.95  daily=Shape_1449
New Load.LOAD1450 Phases=1 Bus1=820.2.4 kV=0.23 kW=1 PF=0.95  daily=Shape_1450
New Load.LOAD1451 Phases=1 Bus1=785.1.4 kV=0.23 kW=1 PF=0.95  daily=Shape_1451
New Load.LOAD1452 Phases=1 Bus1=812.2.4 kV=0.23 kW=1 PF=0.95  daily=Shape_1452
New Load.LOAD1453 Phases=1 Bus1=856.3.4 kV=0.23 kW=1 PF=0.95  daily=Shape_1453
New Load.LOAD1454 Phases=1 Bus1=856.3.4 kV=0.23 kW=1 PF=0.95  daily=Shape_1454
New Load.LOAD1455 Phases=1 Bus1=856.2.4 kV=0.23 kW=1 PF=0.95  daily=Shape_1455
New Load.LOAD1456 Phases=1 Bus1=844.1.4 kV=0.23 kW=1 PF=0.95  daily=Shape_1456
New Load.LOAD1457 Phases=1 Bus1=844.3.4 kV=0.23 kW=1 PF=0.95  daily=Shape_1457
New Load.LOAD1458 Phases=1 Bus1=841.3.4 kV=0.23 kW=1 PF=0.95  daily=Shape_1458
New Load.LOAD1459 Phases=1 Bus1=841.1.4 kV=0.23 kW=1 PF=0.95  daily=Shape_1459
New Load.LOAD1460 Phases=1 Bus1=841.1.4 kV=0.23 kW=1 PF=0.95  daily=Shape_1460
New Load.LOAD1461 Phases=1 Bus1=850.1.4 kV=0.23 kW=1 PF=0.95  daily=Shape_1461
New Load.LOAD1462 Phases=1 Bus1=764.2.4 kV=0.23 kW=1 PF=0.95  daily=Shape_1462
New Load.LOAD1463 Phases=1 Bus1=769.1.4 kV=0.23 kW=1 PF=0.95  daily=Shape_1463
New Load.LOAD1464 Phases=1 Bus1=811.2.4 kV=0.23 kW=1 PF=0.95  daily=Shape_1464
New Load.LOAD1465 Phases=1 Bus1=764.1.4 kV=0.23 kW=1 PF=0.95  daily=Shape_1465
New Load.LOAD1466 Phases=1 Bus1=764.1.4 kV=0.23 kW=1 PF=0.95  daily=Shape_1466
New Load.LOAD1467 Phases=1 Bus1=764.3.4 kV=0.23 kW=1 PF=0.95  daily=Shape_1467
New Load.LOAD1468 Phases=1 Bus1=768.2.4 kV=0.23 kW=1 PF=0.95  daily=Shape_1468
New Load.LOAD1469 Phases=1 Bus1=800.1.4 kV=0.23 kW=1 PF=0.95  daily=Shape_1469
New Load.LOAD1470 Phases=1 Bus1=845.2.4 kV=0.23 kW=1 PF=0.95  daily=Shape_1470
New Load.LOAD1471 Phases=1 Bus1=845.3.4 kV=0.23 kW=1 PF=0.95  daily=Shape_1471
New Load.LOAD1472 Phases=1 Bus1=845.1.4 kV=0.23 kW=1 PF=0.95  daily=Shape_1472
New Load.LOAD1473 Phases=1 Bus1=845.2.4 kV=0.23 kW=1 PF=0.95  daily=Shape_1473
New Load.LOAD1474 Phases=1 Bus1=845.1.4 kV=0.23 kW=1 PF=0.95  daily=Shape_1474
New Load.LOAD1475 Phases=1 Bus1=845.3.4 kV=0.23 kW=1 PF=0.95  daily=Shape_1475
New Load.LOAD1476 Phases=1 Bus1=850.1.4 kV=0.23 kW=1 PF=0.95  daily=Shape_1476
New Load.LOAD1477 Phases=1 Bus1=850.1.4 kV=0.23 kW=1 PF=0.95  daily=Shape_1477
New Load.LOAD1478 Phases=1 Bus1=850.1.4 kV=0.23 kW=1 PF=0.95  daily=Shape_1478
New Load.LOAD1479 Phases=1 Bus1=850.3.4 kV=0.23 kW=1 PF=0.95  daily=Shape_1479
New Load.LOAD1480 Phases=1 Bus1=850.2.4 kV=0.23 kW=1 PF=0.95  daily=Shape_1480
New Load.LOAD1481 Phases=1 Bus1=850.3.4 kV=0.23 kW=1 PF=0.95  daily=Shape_1481
New Load.LOAD1482 Phases=1 Bus1=801.1.4 kV=0.23 kW=1 PF=0.95  daily=Shape_1482
New Load.LOAD1483 Phases=1 Bus1=841.3.4 kV=0.23 kW=1 PF=0.95  daily=Shape_1483
New Load.LOAD1484 Phases=1 Bus1=807.2.4 kV=0.23 kW=1 PF=0.95  daily=Shape_1484
New Load.LOAD1485 Phases=1 Bus1=770.2.4 kV=0.23 kW=1 PF=0.95  daily=Shape_1485
New Load.LOAD1486 Phases=1 Bus1=801.2.4 kV=0.23 kW=1 PF=0.95  daily=Shape_1486
New Load.LOAD1487 Phases=1 Bus1=855.3.4 kV=0.23 kW=1 PF=0.95  daily=Shape_1487
New Load.LOAD1488 Phases=1 Bus1=855.3.4 kV=0.23 kW=1 PF=0.95  daily=Shape_1488
New Load.LOAD1489 Phases=1 Bus1=855.1.4 kV=0.23 kW=1 PF=0.95  daily=Shape_1489
New Load.LOAD1490 Phases=1 Bus1=855.3.4 kV=0.23 kW=1 PF=0.95  daily=Shape_1490
New Load.LOAD1491 Phases=1 Bus1=855.2.4 kV=0.23 kW=1 PF=0.95  daily=Shape_1491
New Load.LOAD1492 Phases=1 Bus1=855.1.4 kV=0.23 kW=1 PF=0.95  daily=Shape_1492
New Load.LOAD1493 Phases=1 Bus1=855.2.4 kV=0.23 kW=1 PF=0.95  daily=Shape_1493
New Load.LOAD1494 Phases=1 Bus1=855.1.4 kV=0.23 kW=1 PF=0.95  daily=Shape_1494
New Load.LOAD1495 Phases=1 Bus1=855.2.4 kV=0.23 kW=1 PF=0.95  daily=Shape_1495
New Load.LOAD1496 Phases=1 Bus1=855.3.4 kV=0.23 kW=1 PF=0.95  daily=Shape_1496
New Load.LOAD1497 Phases=1 Bus1=801.3.4 kV=0.23 kW=1 PF=0.95  daily=Shape_1497
New Load.LOAD1498 Phases=1 Bus1=801.3.4 kV=0.23 kW=1 PF=0.95  daily=Shape_1498
New Load.LOAD1499 Phases=1 Bus1=801.2.4 kV=0.23 kW=1 PF=0.95  daily=Shape_1499
New Load.LOAD1500 Phases=1 Bus1=844.1.4 kV=0.23 kW=1 PF=0.95  daily=Shape_1500
New Load.LOAD1501 Phases=1 Bus1=844.1.4 kV=0.23 kW=1 PF=0.95  daily=Shape_1501
New Load.LOAD1502 Phases=1 Bus1=844.1.4 kV=0.23 kW=1 PF=0.95  daily=Shape_1502
New Load.LOAD1503 Phases=1 Bus1=844.3.4 kV=0.23 kW=1 PF=0.95  daily=Shape_1503
New Load.LOAD1504 Phases=1 Bus1=844.2.4 kV=0.23 kW=1 PF=0.95  daily=Shape_1504
New Load.LOAD1505 Phases=1 Bus1=855.2.4 kV=0.23 kW=1 PF=0.95  daily=Shape_1505
New Load.LOAD1506 Phases=1 Bus1=855.3.4 kV=0.23 kW=1 PF=0.95  daily=Shape_1506
New Load.LOAD1507 Phases=1 Bus1=855.2.4 kV=0.23 kW=1 PF=0.95  daily=Shape_1507
New Load.LOAD1508 Phases=1 Bus1=844.3.4 kV=0.23 kW=1 PF=0.95  daily=Shape_1508
New Load.LOAD1509 Phases=1 Bus1=844.2.4 kV=0.23 kW=1 PF=0.95  daily=Shape_1509
New Load.LOAD1510 Phases=1 Bus1=844.2.4 kV=0.23 kW=1 PF=0.95  daily=Shape_1510
New Load.LOAD1511 Phases=1 Bus1=844.1.4 kV=0.23 kW=1 PF=0.95  daily=Shape_1511
New Load.LOAD1512 Phases=1 Bus1=844.2.4 kV=0.23 kW=1 PF=0.95  daily=Shape_1512
New Load.LOAD1513 Phases=1 Bus1=844.3.4 kV=0.23 kW=1 PF=0.95  daily=Shape_1513
New Load.LOAD1514 Phases=1 Bus1=844.1.4 kV=0.23 kW=1 PF=0.95  daily=Shape_1514
New Load.LOAD1515 Phases=1 Bus1=844.3.4 kV=0.23 kW=1 PF=0.95  daily=Shape_1515
New Load.LOAD1516 Phases=1 Bus1=844.2.4 kV=0.23 kW=1 PF=0.95  daily=Shape_1516
...
!New Load.LOAD1907 Phases=1 Bus1=0.3.4 kV=0.4 kW=1 PF=0.95  daily=Shape_1907
New Load.LOAD1908 Phases=1 Bus1=1092.1.4 kV=0.23 kW=1 PF=0.95  daily=Shape_1908
New Load.LOAD1909 Phases=1 Bus1=1119.3.4 kV=0.23 kW=1 PF=0.95  daily=Shape_1909
New Load.LOAD1910 Phases=1 Bus1=1092.2.4 kV=0.23 kW=1 PF=0.95  daily=Shape_1910
New Load.LOAD1911 Phases=1 Bus1=1205.1.4 kV=0.23 kW=1 PF=0.95  daily=Shape_1911
New Load.LOAD1912 Phases=1 Bus1=1215.1.4 kV=0.23 kW=1 PF=0.95  daily=Shape_1912
New Load.LOAD1913 Phases=1 Bus1=1214.2.4 kV=0.23 kW=1 PF=0.95  daily=Shape_1913
New Load.LOAD1914 Phases=3 Bus1=1196.1.2.3.4 kV=0.4 kW=1 PF=0.95  daily=Shape_1914
New Load.LOAD1915 Phases=3 Bus1=1172.1.2.3.4 kV=0.4 kW=1 PF=0.95  daily=Shape_1915
New Load.LOAD1916 Phases=3 Bus1=1092.1.2.3.4 kV=0.4 kW=1 PF=0.95  daily=Shape_1916
New Load.LOAD1917 Phases=3 Bus1=1162.1.2.3.4 kV=0.4 kW=1 PF=0.95  daily=Shape_1917
New Load.LOAD1918 Phases=1 Bus1=1211.3.4 kV=0.23 kW=1 PF=0.95  daily=Shape_1918
New Load.LOAD1919 Phases=1 Bus1=1185.3.4 kV=0.23 kW=1 PF=0.95  daily=Shape_1919
New Load.LOAD1920 Phases=1 Bus1=1165.1.4 kV=0.23 kW=1 PF=0.95  daily=Shape_1920
New Load.LOAD1921 Phases=1 Bus1=1105.3.4 kV=0.23 kW=1 PF=0.95  daily=Shape_1921
New Load.LOAD1922 Phases=1 Bus1=1185.2.4 kV=0.23 kW=1 PF=0.95  daily=Shape_1922
New Load.LOAD1923 Phases=1 Bus1=1100.2.4 kV=0.23 kW=1 PF=0.95  daily=Shape_1923
New Load.LOAD1924 Phases=1 Bus1=1199.1.4 kV=0.23 kW=1 PF=0.95  daily=Shape_1924
New Load.LOAD1925 Phases=1 Bus1=1207.2.4 kV=0.23 kW=1 PF=0.95  daily=Shape_1925
New Load.LOAD1926 Phases=1 Bus1=1201.2.4 kV=0.23 kW=1 PF=0.95  daily=Shape_1926
New Load.LOAD1927 Phases=1 Bus1=1203.3.4 kV=0.23 kW=1 PF=0.95  daily=Shape_1927
New Load.LOAD1928 Phases=1 Bus1=1206.3.4 kV=0.23 kW=1 PF=0.95  daily=Shape_1928
New Load.LOAD1929 Phases=1 Bus1=1200.3.4 kV=0.23 kW=1 PF=0.95  daily=Shape_1929
New Load.LOAD1930 Phases=1 Bus1=1100.1.4 kV=0.23 kW=1 PF=0.95  daily=Shape_1930
New Load.LOAD1931 Phases=1 Bus1=1104.3.4 kV=0.23 kW=1 PF=0.95  daily=Shape_1931
New Load.LOAD1932 Phases=3 Bus1=1101.1.2.3.4 kV=0.4 kW=1 PF=0.95  daily=Shape_1932
New Load.LOAD1933 Phases=3 Bus1=1146.1.2.3.4 kV=0.4 kW=1 PF=0.95  daily=Shape_1933
New Load.LOAD1934 Phases=3 Bus1=1104.1.2.3.4 kV=0.4 kW=1 PF=0.95  daily=Shape_1934
New Load.LOAD1935 Phases=3 Bus1=1165.1.2.3.4 kV=0.4 kW=1 PF=0.95  daily=Shape_1935
New Load.LOAD1936 Phases=3 Bus1=1181.1.2.3.4 kV=0.4 kW=1 PF=0.95  daily=Shape_1936
New Load.LOAD1937 Phases=1 Bus1=1199.1.4 kV=0.23 kW=1 PF=0.95  daily=Shape_1937
New Load.LOAD1938 Phases=1 Bus1=1092.3.4 kV=0.23 kW=1 PF=0.95  daily=Shape_1938
New Load.LOAD1939 Phases=1 Bus1=1165.3.4 kV=0.23 kW=1 PF=0.95  daily=Shape_1939
New Load.LOAD1940 Phases=1 Bus1=1165.3.4 kV=0.23 kW=1 PF=0.95  daily=Shape_1940
New Load.LOAD1941 Phases=1 Bus1=1101.1.4 kV=0.23 kW=1 PF=0.95  daily=Shape_1941
New Load.LOAD1942 Phases=3 Bus1=1105.1.2.3.4 kV=0.4 kW=1 PF=0.95  daily=Shape_1942
New Load.LOAD1943 Phases=3 Bus1=1104.1.2.3.4 kV=0.4 kW=1 PF=0.95  daily=Shape_1943
New Load.LOAD1944 Phases=3 Bus1=1105.1.2.3.4 kV=0.4 kW=1 PF=0.95  daily=Shape_1944
New Load.LOAD1945 Phases=3 Bus1=1104.1.2.3.4 kV=0.4 kW=1 PF=0.95  daily=Shape_1945
New Load.LOAD1946 Phases=3 Bus1=1104.1.2.3.4 kV=0.4 kW=1 PF=0.95  daily=Shape_1946
New Load.LOAD1947 Phases=3 Bus1=1098.1.2.3.4 kV=0.4 kW=1 PF=0.95  daily=Shape_1947
New Load.LOAD1948 Phases=3 Bus1=1100.1.2.3.4 kV=0.4 kW=1 PF=0.95  daily=Shape_1948
New Load.LOAD1949 Phases=3 Bus1=1158.1.2.3.4 kV=0.4 kW=1 PF=0.95  daily=Shape_1949
New Load.LOAD1950 Phases=3 Bus1=1112.1.2.3.4 kV=0.4 kW=1 PF=0.95  daily=Shape_1950
New Load.LOAD1951 Phases=3 Bus1=1181.1.2.3.4 kV=0.4 kW=1 PF=0.95  daily=Shape_1951
New Load.LOAD1952 Phases=3 Bus1=1144.1.2.3.4 kV=0.4 kW=1 PF=0.95  daily=Shape_1952
New Load.LOAD1953 Phases=3 Bus1=1126.1.2.3.4 kV=0.4 kW=1 PF=0.95  daily=Shape_1953
New Load.LOAD1954 Phases=3 Bus1=1190.1.2.3.4 kV=0.4 kW=1 PF=0.95  daily=Shape_1954
New Load.LOAD1955 Phases=3 Bus1=1101.1.2.3.4 kV=0.4 kW=1 PF=0.95  daily=Shape_1955
New Load.LOAD1956 Phases=3 Bus1=1106.1.2.3.4 kV=0.4 kW=1 PF=0.95  daily=Shape_1956
New Load.LOAD1957 Phases=3 Bus1=1165.1.2.3.4 kV=0.4 kW=1 PF=0.95  daily=Shape_1957
New Load.LOAD1958 Phases=3 Bus1=1185.1.2.3.4 kV=0.4 kW=1 PF=0.95  daily=Shape_1958
New Load.LOAD1959 Phases=3 Bus1=1165.1.2.3.4 kV=0.4 kW=1 PF=0.95  daily=Shape_1959
New Load.LOAD1960 Phases=3 Bus1=1185.1.2.3.4 kV=0.4 kW=1 PF=0.95  daily=Shape_1960
New Load.LOAD1961 Phases=3 Bus1=1217.1.2.3.4 kV=0.4 kW=1 PF=0.95  daily=Shape_1961
New Load.LOAD1962 Phases=3 Bus1=1109.1.2.3.4 kV=0.4 kW=1 PF=0.95  daily=Shape_1962
New Load.LOAD1963 Phases=3 Bus1=1109.1.2.3.4 kV=0.4 kW=1 PF=0.95  daily=Shape_1963
New Load.LOAD1964 Phases=1 Bus1=1109.2.4 kV=0.23 kW=1 PF=0.95  daily=Shape_1964
New Load.LOAD1965 Phases=1 Bus1=1098.2.4 kV=0.23 kW=1 PF=0.95  daily=Shape_1965
New Load.LOAD1966 Phases=1 Bus1=1098.2.4 kV=0.23 kW=1 PF=0.95  daily=Shape_1966
New Load.LOAD1967 Phases=1 Bus1=1098.1.4 kV=0.23 kW=1 PF=0.95  daily=Shape_1967
New Load.LOAD1968 Phases=1 Bus1=1098.1.4 kV=0.23 kW=1 PF=0.95  daily=Shape_1968
New Load.LOAD1969 Phases=1 Bus1=1098.2.4 kV=0.23 kW=1 PF=0.95  daily=Shape_1969
New Load.LOAD1970 Phases=1 Bus1=1098.3.4 kV=0.23 kW=1 PF=0.95  daily=Shape_1970
New Load.LOAD1971 Phases=1 Bus1=1098.3.4 kV=0.23 kW=1 PF=0.95  daily=Shape_1971
New Load.LOAD1972 Phases=1 Bus1=1098.2.4 kV=0.23 kW=1 PF=0.95  daily=Shape_1972
New Load.LOAD1973 Phases=1 Bus1=1098.2.4 kV=0.23 kW=1 PF=0.95  daily=Shape_1973
New Load.LOAD1974 Phases=1 Bus1=1098.2.4 kV=0.23 kW=1 PF=0.95  daily=Shape_1974
New Load.LOAD1975 Phases=1 Bus1=1139.3.4 kV=0.23 kW=1 PF=0.95  daily=Shape_1975
New Load.LOAD1976 Phases=1 Bus1=1129.1.4 kV=0.23 kW=1 PF=0.95  daily=Shape_1976
New Load.LOAD1977 Phases=1 Bus1=1150.1.4 kV=0.23 kW=1 PF=0.95  daily=Shape_1977
New Load.LOAD1978 Phases=1 Bus1=1145.1.4 kV=0.23 kW=1 PF=0.95  daily=Shape_1978
New Load.LOAD1979 Phases=1 Bus1=1185.2.4 kV=0.23 kW=1 PF=0.95  daily=Shape_1979
New Load.LOAD1980 Phases=1 Bus1=1185.2.4 kV=0.23 kW=1 PF=0.95  daily=Shape_1980
New Load.LOAD1981 Phases=1 Bus1=1185.1.4 kV=0.23 kW=1 PF=0.95  daily=Shape_1981
New Load.LOAD1982 Phases=1 Bus1=1185.2.4 kV=0.23 kW=1 PF=0.95  daily=Shape_1982
New Load.LOAD1983 Phases=1 Bus1=1185.2.4 kV=0.23 kW=1 PF=0.95  daily=Shape_1983
New Load.LOAD1984 Phases=1 Bus1=1185.3.4 kV=0.23 kW=1 PF=0.95  daily=Shape_1984
New Load.LOAD1985 Phases=1 Bus1=1185.1.4 kV=0.23 kW=1 PF=0.95  daily=Shape_1985
New Load.LOAD1986 Phases=1 Bus1=1185.3.4 kV=0.23 kW=1 PF=0.95  daily=Shape_1986
New Load.LOAD1987 Phases=1 Bus1=1109.2.4 kV=0.23 kW=1 PF=0.95  daily=Shape_1987
New Load.LOAD1988 Phases=1 Bus1=1109.2.4 kV=0.23 kW=1 PF=0.95  daily=Shape_1988
New Load.LOAD1989 Phases=1 Bus1=1202.3.4 kV=0.23 kW=1 PF=0.95  daily=Shape_1989
New Load.LOAD1990 Phases=1 Bus1=1124.3.4 kV=0.23 kW=1 PF=0.95  daily=Shape_1990
New Load.LOAD1991 Phases=1 Bus1=1120.1.4 kV=0.23 kW=1 PF=0.95  daily=Shape_1991
New Load.LOAD1992 Phases=1 Bus1=1133.1.4 kV=0.23 kW=1 PF=0.95  daily=Shape_1992
New Load.LOAD1993 Phases=1 Bus1=1131.1.4 kV=0.23 kW=1 PF=0.95  daily=Shape_1993
New Load.LOAD1994 Phases=1 Bus1=1198.2.4 kV=0.23 kW=1 PF=0.95  daily=Shape_1994
New Load.LOAD1995 Phases=1 Bus1=1105.2.4 kV=0.23 kW=1 PF=0.95  daily=Shape_1995
New Load.LOAD1996 Phases=1 Bus1=1103.2.4 kV=0.23 kW=1 PF=0.95  daily=Shape_1996
New Load.LOAD1997 Phases=1 Bus1=1103.3.4 kV=0.23 kW=1 PF=0.95  daily=Shape_1997
New Load.LOAD1998 Phases=1 Bus1=1103.1.4 kV=0.23 kW=1 PF=0.95  daily=Shape_1998
New Load.LOAD1999 Phases=1 Bus1=1103.2.4 kV=0.23 kW=1 PF=0.95  daily=Shape_1999
New Load.LOAD2000 Phases=1 Bus1=1103.2.4 kV=0.23 kW=1 PF=0.95  daily=Shape_2000
New Load.LOAD2001 Phases=1 Bus1=1103.1.4 kV=0.23 kW=1 PF=0.95  daily=Shape_2001
New Load.LOAD2002 Phases=1 Bus1=1103.3.4 kV=0.23 kW=1 PF=0.95  daily=Shape_2002
New Load.LOAD2003 Phases=1 Bus1=1103.2.4 kV=0.23 kW=1 PF=0.95  daily=Shape_2003
New Load.LOAD2004 Phases=1 Bus1=1103.3.4 kV=0.23 kW=1 PF=0.95  daily=Shape_2004
New Load.LOAD2005 Phases=1 Bus1=1103.1.4 kV=0.23 kW=1 PF=0.95  daily=Shape_2005
New Load.LOAD2006 Phases=1 Bus1=1185.1.4 kV=0.23 kW=1 PF=0.95  daily=Shape_2006
New Load.LOAD2007 Phases=1 Bus1=1185.3.4 kV=0.23 kW=1 PF=0.95  daily=Shape_2007
New Load.LOAD2008 Phases=1 Bus1=1165.3.4 kV=0.23 kW=1 PF=0.95  daily=Shape_2008
New Load.LOAD2009 Phases=1 Bus1=1165.1.4 kV=0.23 kW=1 PF=0.95  daily=Shape_2009
New Load.LOAD2010 Phases=1 Bus1=1101.3.4 kV=0.23 kW=1 PF=0.95  daily=Shape_2010
New Load.LOAD2011 Phases=1 Bus1=1101.2.4 kV=0.23 kW=1 PF=0.95  daily=Shape_2011
New Load.LOAD2012 Phases=1 Bus1=1101.1.4 kV=0.23 kW=1 PF=0.95  daily=Shape_2012
New Load.LOAD2013 Phases=1 Bus1=1165.1.4 kV=0.23 kW=1 PF=0.95  daily=Shape_2013
New Load.LOAD2014 Phases=1 Bus1=1165.2.4 kV=0.23 kW=1 PF=0.95  daily=Shape_2014
New Load.LOAD2015 Phases=1 Bus1=1101.2.4 kV=0.23 kW=1 PF=0.95  daily=Shape_2015
New Load.LOAD2016 Phases=1 Bus1=1101.3.4 kV=0.23 kW=1 PF=0.95  daily=Shape_2016
New Load.LOAD2017 Phases=1 Bus1=1101.2.4 kV=0.23 kW=1 PF=0.95  daily=Shape_2017
New Load.LOAD2018 Phases=1 Bus1=1170.2.4 kV=0.23 kW=1 PF=0.95  daily=Shape_2018
New Load.LOAD2019 Phases=1 Bus1=1155.3.4 kV=0.23 kW=1 PF=0.95  daily=Shape_2019
New Load.LOAD2020 Phases=1 Bus1=1100.2.4 kV=0.23 kW=1 PF=0.95  daily=Shape_2020
New Load.LOAD2021 Phases=1 Bus1=1101.3.4 kV=0.23 kW=1 PF=0.95  daily=Shape_2021
New Load.LOAD2022 Phases=1 Bus1=1101.3.4 kV=0.23 kW=1 PF=0.95  daily=Shape_2022
New Load.LOAD2023 Phases=1 Bus1=1101.1.4 kV=0.23 kW=1 PF=0.95  daily=Shape_2023
New Load.LOAD2024 Phases=1 Bus1=1101.1.4 kV=0.23 kW=1 PF=0.95  daily=Shape_2024
New Load.LOAD2025 Phases=1 Bus1=1101.3.4 kV=0.23 kW=1 PF=0.95  daily=Shape_2025
New Load.LOAD2026 Phases=1 Bus1=1101.1.4 kV=0.23 kW=1 PF=0.95  daily=Shape_2026
New Load.LOAD2027 Phases=1 Bus1=1101.3.4 kV=0.23 kW=1 PF=0.95  daily=Shape_2027
New Load.LOAD2028 Phases=1 Bus1=1101.1.4 kV=0.23 kW=1 PF=0.95  daily=Shape_2028
New Load.LOAD2029 Phases=1 Bus1=1101.2.4 kV=0.23 kW=1 PF=0.95  daily=Shape_2029
New Load.LOAD2030 Phases=1 Bus1=1101.3.4 kV=0.23 kW=1 PF=0.95  daily=Shape_2030
New Load.LOAD2031 Phases=1 Bus1=1105.3.4 kV=0.23 kW=1 PF=0.95  daily=Shape_2031
New Load.LOAD2032 Phases=1 Bus1=1105.3.4 kV=0.23 kW=1 PF=0.95  daily=Shape_2032
New Load.LOAD2033 Phases=1 Bus1=1105.1.4 kV=0.23 kW=1 PF=0.95  daily=Shape_2033
New Load.LOAD2034 Phases=1 Bus1=1105.2.4 kV=0.23 kW=1 PF=0.95  daily=Shape_2034
New Load.LOAD2035 Phases=1 Bus1=1105.1.4 kV=0.23 kW=1 PF=0.95  daily=Shape_2035
New Load.LOAD2036 Phases=1 Bus1=1105.3.4 kV=0.23 kW=1 PF=0.95  daily=Shape_2036
New Load.LOAD2037 Phases=1 Bus1=1105.2.4 kV=0.23 kW=1 PF=0.95  daily=Shape_2037
New Load.LOAD2038 Phases=1 Bus1=1165.2.4 kV=0.23 kW=1 PF=0.95  daily=Shape_2038
New Load.LOAD2039 Phases=1 Bus1=1165.1.4 kV=0.23 kW=1 PF=0.95  daily=Shape_2039
New Load.LOAD2040 Phases=1 Bus1=1165.3.4 kV=0.23 kW=1 PF=0.95  daily=Shape_2040
New Load.LOAD2041 Phases=1 Bus1=1165.1.4 kV=0.23 kW=1 PF=0.95  daily=Shape_2041
New Load.LOAD2042 Phases=1 Bus1=1165.2.4 kV=0.23 kW=1 PF=0.95  daily=Shape_2042
New Load.LOAD2043 Phases=1 Bus1=1165.2.4 kV=0.23 kW=1 PF=0.95  daily=Shape_2043
New Load.LOAD2044 Phases=1 Bus1=1165.1.4 kV=0.23 kW=1 PF=0.95  daily=Shape_2044
New Load.LOAD2045 Phases=1 Bus1=1165.3.4 kV=0.23 kW=1 PF=0.95  daily=Shape_2045
New Load.LOAD2046 Phases=1 Bus1=1165.2.4 kV=0.23 kW=1 PF=0.95  daily=Shape_2046
New Load.LOAD2047 Phases=1 Bus1=1185.1.4 kV=0.23 kW=1 PF=0.95  daily=Shape_2047
New Load.LOAD2048 Phases=1 Bus1=1100.2.4 kV=0.23 kW=1 PF=0.95  daily=Shape_2048
New Load.LOAD2049 Phases=1 Bus1=1104.1.4 kV=0.23 kW=1 PF=0.95  daily=Shape_2049
New Load.LOAD2050 Phases=1 Bus1=1104.1.4 kV=0.23 kW=1 PF=0.95  daily=Shape_2050
New Load.LOAD2051 Phases=1 Bus1=1104.3.4 kV=0.23 kW=1 PF=0.95  daily=Shape_2051
New Load.LOAD2052 Phases=1 Bus1=1104.1.4 kV=0.23 kW=1 PF=0.95  daily=Shape_2052
New Load.LOAD2053 Phases=1 Bus1=1104.3.4 kV=0.23 kW=1 PF=0.95  daily=Shape_2053
New Load.LOAD2054 Phases=1 Bus1=1104.2.4 kV=0.23 kW=1 PF=0.95  daily=Shape_2054
New Load.LOAD2055 Phases=1 Bus1=1213.2.4 kV=0.23 kW=1 PF=0.95  daily=Shape_2055
New Load.LOAD2056 Phases=1 Bus1=1180.2.4 kV=0.23 kW=1 PF=0.95  daily=Shape_2056
New Load.LOAD2057 Phases=1 Bus1=1180.2.4 kV=0.23 kW=1 PF=0.95  daily=Shape_2057
New Load.LOAD2058 Phases=1 Bus1=1180.2.4 kV=0.23 kW=1 PF=0.95  daily=Shape_2058
New Load.LOAD2059 Phases=1 Bus1=1180.1.4 kV=0.23 kW=1 PF=0.95  daily=Shape_2059
New Load.LOAD2060 Phases=1 Bus1=1180.2.4 kV=0.23 kW=1 PF=0.95  daily=Shape_2060
New Load.LOAD2061 Phases=1 Bus1=1158.1.4 kV=0.23 kW=1 PF=0.95  daily=Shape_2061
New Load.LOAD2062 Phases=1 Bus1=1180.3.4 kV=0.23 kW=1 PF=0.95  daily=Shape_2062
New Load.LOAD2063 Phases=1 Bus1=1159.3.4 kV=0.23 kW=1 PF=0.95  daily=Shape_2063
New Load.LOAD2064 Phases=1 Bus1=1100.3.4 kV=0.23 kW=1 PF=0.95  daily=Shape_2064
New Load.LOAD2065 Phases=1 Bus1=1100.2.4 kV=0.23 kW=1 PF=0.95  daily=Shape_2065
New Load.LOAD2066 Phases=1 Bus1=1100.3.4 kV=0.23 kW=1 PF=0.95  daily=Shape_2066
New Load.LOAD2067 Phases=1 Bus1=1100.1.4 kV=0.23 kW=1 PF=0.95  daily=Shape_2067
New Load.LOAD2068 Phases=1 Bus1=1100.1.4 kV=0.23 kW=1 PF=0.95  daily=Shape_2068
New Load.LOAD2069 Phases=1 Bus1=1100.1.4 kV=0.23 kW=1 PF=0.95  daily=Shape_2069
New Load.LOAD2070 Phases=1 Bus1=1100.3.4 kV=0.23 kW=1 PF=0.95  daily=Shape_2070
New Load.LOAD2071 Phases=1 Bus1=1100.3.4 kV=0.23 kW=1 PF=0.95  daily=Shape_2071
New Load.LOAD2072 Phases=1 Bus1=1100.2.4 kV=0.23 kW=1 PF=0.95  daily=Shape_2072
New Load.LOAD2073 Phases=1 Bus1=1100.1.4 kV=0.23 kW=1 PF=0.95  daily=Shape_2073
New Load.LOAD2074 Phases=1 Bus1=1183.2.4 kV=0.23 kW=1 PF=0.95  daily=Shape_2074
New Load.LOAD2075 Phases=1 Bus1=1182.2.4 kV=0.23 kW=1 PF=0.95  daily=Shape_2075
New Load.LOAD2076 Phases=1 Bus1=1182.3.4 kV=0.23 kW=1 PF=0.95  daily=Shape_2076
New Load.LOAD2077 Phases=1 Bus1=1182.1.4 kV=0.23 kW=1 PF=0.95  daily=Shape_2077
New Load.LOAD2078 Phases=1 Bus1=1183.3.4 kV=0.23 kW=1 PF=0.95  daily=Shape_2078
New Load.LOAD2079 Phases=1 Bus1=1183.1.4 kV=0.23 kW=1 PF=0.95  daily=Shape_2079
New Load.LOAD2080 Phases=1 Bus1=1183.2.4 kV=0.23 kW=1 PF=0.95  daily=Shape_2080
New Load.LOAD2081 Phases=1 Bus1=1182.1.4 kV=0.23 kW=1 PF=0.95  daily=Shape_2081
New Load.LOAD2082 Phases=1 Bus1=1182.3.4 kV=0.23 kW=1 PF=0.95  daily=Shape_2082
New Load.LOAD2083 Phases=1 Bus1=1143.3.4 kV=0.23 kW=1 PF=0.95  daily=Shape_2083
New Load.LOAD2084 Phases=1 Bus1=1157.2.4 kV=0.23 kW=1 PF=0.95  daily=Shape_2084
New Load.LOAD2085 Phases=1 Bus1=1137.1.4 kV=0.23 kW=1 PF=0.95  daily=Shape_2085
New Load.LOAD2086 Phases=1 Bus1=1135.2.4 kV=0.23 kW=1 PF=0.95  daily=Shape_2086
New Load.LOAD2087 Phases=1 Bus1=1098.1.4 kV=0.23 kW=1 PF=0.95  daily=Shape_2087
New Load.LOAD2088 Phases=1 Bus1=1098.2.4 kV=0.23 kW=1 PF=0.95  daily=Shape_2088
New Load.LOAD2089 Phases=1 Bus1=1098.3.4 kV=0.23 kW=1 PF=0.95  daily=Shape_2089
New Load.LOAD2090 Phases=1 Bus1=1098.3.4 kV=0.23 kW=1 PF=0.95  daily=Shape_2090
New Load.LOAD2091 Phases=1 Bus1=1098.3.4 kV=0.23 kW=1 PF=0.95  daily=Shape_2091
New Load.LOAD2092 Phases=1 Bus1=1098.1.4 kV=0.23 kW=1 PF=0.95  daily=Shape_2092
New Load.LOAD2093 Phases=1 Bus1=1098.3.4 kV=0.23 kW=1 PF=0.95  daily=Shape_2093
New Load.LOAD2094 Phases=1 Bus1=1098.1.4 kV=0.23 kW=1 PF=0.95  daily=Shape_2094
New Load.LOAD2095 Phases=1 Bus1=1098.2.4 kV=0.23 kW=1 PF=0.95  daily=Shape_2095
New Load.LOAD2096 Phases=1 Bus1=1098.2.4 kV=0.23 kW=1 PF=0.95  daily=Shape_2096
New Load.LOAD2097 Phases=1 Bus1=1118.1.4 kV=0.23 kW=1 PF=0.95  daily=Shape_2097
New Load.LOAD2098 Phases=1 Bus1=1190.2.4 kV=0.23 kW=1 PF=0.95  daily=Shape_2098
New Load.LOAD2099 Phases=1 Bus1=1190.1.4 kV=0.23 kW=1 PF=0.95  daily=Shape_2099
New Load.LOAD2100 Phases=1 Bus1=1190.1.4 kV=0.23 kW=1 PF=0.95  daily=Shape_2100
New Load.LOAD2101 Phases=1 Bus1=1190.2.4 kV=0.23 kW=1 PF=0.95  daily=Shape_2101
New Load.LOAD2102 Phases=1 Bus1=1190.3.4 kV=0.23 kW=1 PF=0.95  daily=Shape_2102
New Load.LOAD2103 Phases=1 Bus1=1190.2.4 kV=0.23 kW=1 PF=0.95  daily=Shape_2103
New Load.LOAD2104 Phases=1 Bus1=1190.3.4 kV=0.23 kW=1 PF=0.95  daily=Shape_2104
New Load.LOAD2105 Phases=1 Bus1=1116.3.4 kV=0.23 kW=1 PF=0.95  daily=Shape_2105
New Load.LOAD2106 Phases=1 Bus1=1116.3.4 kV=0.23 kW=1 PF=0.95  daily=Shape_2106
New Load.LOAD2107 Phases=1 Bus1=1116.3.4 kV=0.23 kW=1 PF=0.95  daily=Shape_2107
...
!New Load.LOAD2340 Phases=3 Bus1=0.1.2.3.4 kV=0.4 kW=1 PF=0.95  daily=Shape_2340
New Load.LOAD2341 Phases=3 Bus1=184.1.2.3.4 kV=0.4 kW=1 PF=0.95  daily=Shape_2341
New Load.LOAD2342 Phases=3 Bus1=184.1.2.3.4 kV=0.4 kW=1 PF=0.95  daily=Shape_2342
New Load.LOAD2343 Phases=3 Bus1=164.1.2.3.4 kV=0.4 kW=1 PF=0.95  daily=Shape_2343
New Load.LOAD2344 Phases=1 Bus1=168.1.4 kV=0.23 kW=1 PF=0.95  daily=Shape_2344
New Load.LOAD2345 Phases=1 Bus1=176.3.4 kV=0.23 kW=1 PF=0.95  daily=Shape_2345
New Load.LOAD2346 Phases=1 Bus1=176.1.4 kV=0.23 kW=1 PF=0.95  daily=Shape_2346
...